Circuit: * C:\Users\DELL-I15\Documents\roboime\Electronic_Boards-master\kicker_driver00\Draft1.asc

WARNING: Specified period is not longer than the sum of Trise, Tfall, and Ton for v2.  Increasing period to 50.1
Limiting fall time of source v2 to 9.9476e-015
Direct Newton iteration for .op point succeeded.
Heightened Def Con from 0.0271342 to 0.0271342
Heightened Def Con from 0.028802 to 0.028802
Heightened Def Con from 0.0295085 to 0.0295085
Heightened Def Con from 0.0301573 to 0.0301573
Heightened Def Con from 0.0307618 to 0.0307618
Heightened Def Con from 0.0313292 to 0.0313292
Heightened Def Con from 0.0323776 to 0.0323777
Heightened Def Con from 0.0328662 to 0.0328663
Heightened Def Con from 0.0333353 to 0.0333353
Heightened Def Con from 0.0337871 to 0.0337871
Heightened Def Con from 0.034651 to 0.034651
Heightened Def Con from 0.035062 to 0.035062
Heightened Def Con from 0.0354603 to 0.0354603
Heightened Def Con from 0.0358489 to 0.0358489
Heightened Def Con from 0.036227 to 0.036227
Heightened Def Con from 0.0365961 to 0.0365961
Heightened Def Con from 0.0373098 to 0.0373098
Heightened Def Con from 0.0383272 to 0.0383272
Heightened Def Con from 0.0386539 to 0.0386539
Heightened Def Con from 0.0389747 to 0.0389747
Heightened Def Con from 0.0396006 to 0.0396006
Heightened Def Con from 0.040503 to 0.040503
Heightened Def Con from 0.0413676 to 0.0413676
Heightened Def Con from 0.0416481 to 0.0416481
Heightened Def Con from 0.0419251 to 0.0419251
Heightened Def Con from 0.0421986 to 0.0421986
Heightened Def Con from 0.0424689 to 0.0424689
Heightened Def Con from 0.042736 to 0.042736
Heightened Def Con from 0.0432614 to 0.0432614
Heightened Def Con from 0.0435197 to 0.0435197
Heightened Def Con from 0.0440282 to 0.0440282
Heightened Def Con from 0.0442813 to 0.0442813
Heightened Def Con from 0.0445304 to 0.0445304
Heightened Def Con from 0.0447759 to 0.0447759
Heightened Def Con from 0.0450191 to 0.0450191
Heightened Def Con from 0.04526 to 0.04526
Heightened Def Con from 0.0464332 to 0.0464332
Heightened Def Con from 0.0466619 to 0.0466619
Heightened Def Con from 0.0468887 to 0.0468887
Heightened Def Con from 0.0473371 to 0.0473371
Heightened Def Con from 0.0475586 to 0.0475586
Heightened Def Con from 0.0482135 to 0.0482135
Heightened Def Con from 0.048429 to 0.048429
Heightened Def Con from 0.0486425 to 0.0486425
Heightened Def Con from 0.0488546 to 0.0488546
Heightened Def Con from 0.0492744 to 0.0492744
Heightened Def Con from 0.0494822 to 0.0494822
Heightened Def Con from 0.0496887 to 0.0496887
Heightened Def Con from 0.0498938 to 0.0498938
Heightened Def Con from 0.0503001 to 0.0503001
Heightened Def Con from 0.0505015 to 0.0505015
Heightened Def Con from 0.0509006 to 0.0509006
Heightened Def Con from 0.0510983 to 0.0510983
Heightened Def Con from 0.0512948 to 0.0512948
Heightened Def Con from 0.0514903 to 0.0514903
Heightened Def Con from 0.0516846 to 0.0516846
Heightened Def Con from 0.0518778 to 0.0518778
Heightened Def Con from 0.052261 to 0.052261
Heightened Def Con from 0.052451 to 0.052451
Heightened Def Con from 0.0526401 to 0.0526401
Heightened Def Con from 0.0528282 to 0.0528282
Heightened Def Con from 0.0530152 to 0.0530152
Heightened Def Con from 0.0532013 to 0.0532013
Heightened Def Con from 0.0533865 to 0.0533865
Heightened Def Con from 0.0535707 to 0.0535707
Heightened Def Con from 0.053754 to 0.053754
Heightened Def Con from 0.054118 to 0.054118
Heightened Def Con from 0.0542986 to 0.0542986
Heightened Def Con from 0.0546574 to 0.0546574
Heightened Def Con from 0.0548356 to 0.0548356
Heightened Def Con from 0.0550128 to 0.0550128
Heightened Def Con from 0.0551893 to 0.0551893
Heightened Def Con from 0.055365 to 0.055365
Heightened Def Con from 0.0557141 to 0.0557141
Heightened Def Con from 0.0558875 to 0.0558875
Heightened Def Con from 0.056233 to 0.056233
Heightened Def Con from 0.0564042 to 0.0564042
Heightened Def Con from 0.0565747 to 0.0565747
Heightened Def Con from 0.0567444 to 0.0567444
Heightened Def Con from 0.0569135 to 0.0569135
Heightened Def Con from 0.0572495 to 0.0572495
Heightened Def Con from 0.0574165 to 0.0574165
Heightened Def Con from 0.0575829 to 0.0575829
Heightened Def Con from 0.0577486 to 0.0577486
Heightened Def Con from 0.0579137 to 0.0579137
Heightened Def Con from 0.0580781 to 0.0580781
Heightened Def Con from 0.0582419 to 0.0582419
Heightened Def Con from 0.0587296 to 0.0587296
Heightened Def Con from 0.0590517 to 0.0590517
Heightened Def Con from 0.0598474 to 0.0598475
Heightened Def Con from 0.0600048 to 0.0600048
Heightened Def Con from 0.0601616 to 0.0601616
Heightened Def Con from 0.0603179 to 0.0603179
Heightened Def Con from 0.0607838 to 0.0607838
Heightened Def Con from 0.0612449 to 0.0612449
Heightened Def Con from 0.0615498 to 0.0615498
Heightened Def Con from 0.0617023 to 0.0617023
Heightened Def Con from 0.0618535 to 0.0618535
Heightened Def Con from 0.0620043 to 0.0620043
Heightened Def Con from 0.0621546 to 0.0621546
Heightened Def Con from 0.0623051 to 0.0623051
Heightened Def Con from 0.0629 to 0.0629
Heightened Def Con from 0.0631947 to 0.0631947
Heightened Def Con from 0.0633414 to 0.0633414
Heightened Def Con from 0.0634877 to 0.0634877
Heightened Def Con from 0.0636338 to 0.0636338
Heightened Def Con from 0.0637793 to 0.0637793
Heightened Def Con from 0.0639243 to 0.0639243
Heightened Def Con from 0.0639245 to 0.0639245
Heightened Def Con from 0.06407 to 0.06407
Heightened Def Con from 0.0642143 to 0.0642143
Heightened Def Con from 0.0643581 to 0.0643581
Heightened Def Con from 0.0645015 to 0.0645015
Heightened Def Con from 0.0649293 to 0.0649293
Heightened Def Con from 0.0650711 to 0.0650711
Heightened Def Con from 0.0653537 to 0.0653537
Heightened Def Con from 0.0656353 to 0.0656353
Heightened Def Con from 0.0657757 to 0.0657757
Heightened Def Con from 0.0664703 to 0.0664703
Heightened Def Con from 0.0666081 to 0.0666081
Heightened Def Con from 0.0667457 to 0.0667457
Heightened Def Con from 0.0668828 to 0.0668828
Heightened Def Con from 0.0672923 to 0.0672923
Heightened Def Con from 0.0674283 to 0.0674283
Heightened Def Con from 0.0675638 to 0.0675638
Heightened Def Con from 0.0676989 to 0.0676989
Heightened Def Con from 0.0681028 to 0.0681028
Heightened Def Con from 0.0682367 to 0.0682367
Heightened Def Con from 0.0683702 to 0.0683702
Heightened Def Con from 0.0685035 to 0.0685035
Heightened Def Con from 0.0687695 to 0.0687695
Heightened Def Con from 0.0689018 to 0.0689018
Heightened Def Con from 0.0691656 to 0.0691656
Heightened Def Con from 0.0692971 to 0.0692971
Heightened Def Con from 0.0694283 to 0.0694283
Heightened Def Con from 0.0696899 to 0.0696899
Heightened Def Con from 0.0698202 to 0.0698202
Heightened Def Con from 0.0699501 to 0.0699501
Heightened Def Con from 0.0700799 to 0.0700799
Heightened Def Con from 0.0703385 to 0.0703385
Heightened Def Con from 0.0707243 to 0.0707243
Heightened Def Con from 0.0708523 to 0.0708524
Heightened Def Con from 0.0709802 to 0.0709802
Heightened Def Con from 0.0711077 to 0.0711077
Heightened Def Con from 0.071235 to 0.071235
Heightened Def Con from 0.071362 to 0.071362
Heightened Def Con from 0.0714887 to 0.0714887
Heightened Def Con from 0.0717415 to 0.0717415
Heightened Def Con from 0.0718674 to 0.0718674
Heightened Def Con from 0.0721186 to 0.0721186
Heightened Def Con from 0.0722438 to 0.0722438
Heightened Def Con from 0.0723688 to 0.0723688
Heightened Def Con from 0.072618 to 0.072618
Heightened Def Con from 0.0727422 to 0.0727422
Heightened Def Con from 0.0728662 to 0.0728662
Heightened Def Con from 0.0729899 to 0.0729899
Heightened Def Con from 0.0731134 to 0.0731134
Heightened Def Con from 0.0732367 to 0.0732367
Heightened Def Con from 0.0733597 to 0.0733597
Heightened Def Con from 0.0734825 to 0.0734825
Heightened Def Con from 0.0737274 to 0.0737274
Heightened Def Con from 0.0738495 to 0.0738495
Heightened Def Con from 0.074093 to 0.074093
Heightened Def Con from 0.0743357 to 0.0743357
Heightened Def Con from 0.0744567 to 0.0744567
Heightened Def Con from 0.0748184 to 0.0748184
Heightened Def Con from 0.0754169 to 0.0754169
Heightened Def Con from 0.0756548 to 0.0756548
Heightened Def Con from 0.0758934 to 0.0758934
Heightened Def Con from 0.0761298 to 0.0761298
Heightened Def Con from 0.0763652 to 0.0763652
Heightened Def Con from 0.0764826 to 0.0764826
Heightened Def Con from 0.0765998 to 0.0765998
Heightened Def Con from 0.0767169 to 0.0767169
Heightened Def Con from 0.0771831 to 0.0771831
Heightened Def Con from 0.0772993 to 0.0772993
Heightened Def Con from 0.0774152 to 0.0774152
Heightened Def Con from 0.0775309 to 0.0775309
Heightened Def Con from 0.0777617 to 0.0777617
Heightened Def Con from 0.0778768 to 0.0778768
Heightened Def Con from 0.0779918 to 0.0779918
Heightened Def Con from 0.0781065 to 0.0781065
Heightened Def Con from 0.0782211 to 0.0782211
Heightened Def Con from 0.0784497 to 0.0784497
Heightened Def Con from 0.0786775 to 0.0786775
Heightened Def Con from 0.0787912 to 0.0787912
Heightened Def Con from 0.079018 to 0.079018
Heightened Def Con from 0.0793569 to 0.0793569
Heightened Def Con from 0.0794695 to 0.0794695
Heightened Def Con from 0.0801418 to 0.0801418
Heightened Def Con from 0.0802533 to 0.0802533
Heightened Def Con from 0.0805866 to 0.0805866
Heightened Def Con from 0.0809186 to 0.0809186
Heightened Def Con from 0.081139 to 0.0811391
Heightened Def Con from 0.081249 to 0.081249
Heightened Def Con from 0.0813589 to 0.0813589
Heightened Def Con from 0.0815781 to 0.0815781
Heightened Def Con from 0.0822321 to 0.0822321
Heightened Def Con from 0.0824488 to 0.0824488
Heightened Def Con from 0.082557 to 0.082557
Heightened Def Con from 0.082665 to 0.082665
Heightened Def Con from 0.0828805 to 0.0828805
Heightened Def Con from 0.0829881 to 0.0829881
Heightened Def Con from 0.083311 to 0.083311
Heightened Def Con from 0.083418 to 0.083418
Heightened Def Con from 0.0835248 to 0.0835248
Heightened Def Con from 0.0838445 to 0.0838445
Heightened Def Con from 0.0843746 to 0.0843746
Heightened Def Con from 0.0845856 to 0.0845856
Heightened Def Con from 0.0849012 to 0.0849012
Heightened Def Con from 0.085111 to 0.085111
Heightened Def Con from 0.0853203 to 0.0853203
Heightened Def Con from 0.0854247 to 0.0854247
Heightened Def Con from 0.0855289 to 0.085529
Heightened Def Con from 0.0856331 to 0.0856331
Heightened Def Con from 0.085841 to 0.085841
Heightened Def Con from 0.0859448 to 0.0859448
Heightened Def Con from 0.0860484 to 0.0860484
Heightened Def Con from 0.0863585 to 0.0863585
Heightened Def Con from 0.0865646 to 0.0865646
Heightened Def Con from 0.0869753 to 0.0869753
Heightened Def Con from 0.0870777 to 0.0870777
Heightened Def Con from 0.0871799 to 0.0871799
Heightened Def Con from 0.087282 to 0.087282
Heightened Def Con from 0.087384 to 0.087384
Heightened Def Con from 0.0875877 to 0.0875877
Heightened Def Con from 0.0876894 to 0.0876894
Heightened Def Con from 0.0877909 to 0.0877909
Heightened Def Con from 0.0879937 to 0.0879937
Heightened Def Con from 0.0882969 to 0.0882969
Heightened Def Con from 0.0883978 to 0.0883978
Heightened Def Con from 0.0884985 to 0.0884985
Heightened Def Con from 0.0885991 to 0.0885991
Heightened Def Con from 0.0887999 to 0.0887999
Heightened Def Con from 0.0890004 to 0.0890004
Heightened Def Con from 0.089599 to 0.089599
Heightened Def Con from 0.0897977 to 0.0897977
Heightened Def Con from 0.0898969 to 0.0898969
Heightened Def Con from 0.0900949 to 0.0900949
Heightened Def Con from 0.0901938 to 0.0901938
Heightened Def Con from 0.0902925 to 0.0902925
Heightened Def Con from 0.0904896 to 0.0904897
Heightened Def Con from 0.0909817 to 0.0909817
Heightened Def Con from 0.0911774 to 0.0911774
Heightened Def Con from 0.0915674 to 0.0915674
Heightened Def Con from 0.0916647 to 0.0916647
Heightened Def Con from 0.0918589 to 0.0918589
Heightened Def Con from 0.0919559 to 0.0919559
Heightened Def Con from 0.0920528 to 0.0920528
Heightened Def Con from 0.0922471 to 0.0922471
Heightened Def Con from 0.0924401 to 0.0924401
Heightened Def Con from 0.0925365 to 0.0925365
Heightened Def Con from 0.0926328 to 0.0926328
Heightened Def Con from 0.092729 to 0.092729
Heightened Def Con from 0.0927291 to 0.0927291
Heightened Def Con from 0.0929211 to 0.0929211
Heightened Def Con from 0.093017 to 0.093017
Heightened Def Con from 0.0931128 to 0.0931128
Heightened Def Con from 0.0933041 to 0.0933041
Heightened Def Con from 0.0935903 to 0.0935903
Heightened Def Con from 0.0937807 to 0.0937807
Heightened Def Con from 0.0939707 to 0.0939707
Heightened Def Con from 0.0940656 to 0.0940656
Heightened Def Con from 0.0943496 to 0.0943496
Heightened Def Con from 0.0944441 to 0.0944441
Heightened Def Con from 0.0945385 to 0.0945385
Heightened Def Con from 0.0948212 to 0.0948212
Heightened Def Con from 0.0949152 to 0.0949152
Heightened Def Con from 0.0950092 to 0.0950092
Heightened Def Con from 0.0952905 to 0.0952905
Heightened Def Con from 0.0954776 to 0.0954776
Heightened Def Con from 0.0956644 to 0.0956644
Heightened Def Con from 0.0958508 to 0.0958508
Heightened Def Con from 0.0960369 to 0.0960369
Heightened Def Con from 0.0962226 to 0.0962226
Heightened Def Con from 0.096408 to 0.096408
Heightened Def Con from 0.0965931 to 0.0965931
Heightened Def Con from 0.0966855 to 0.0966855
Heightened Def Con from 0.0967778 to 0.0967778
Heightened Def Con from 0.0976051 to 0.0976051
Heightened Def Con from 0.0976966 to 0.0976966
Heightened Def Con from 0.0976966 to 0.0976966
Heightened Def Con from 0.097788 to 0.097788
Heightened Def Con from 0.0979713 to 0.0979713
Heightened Def Con from 0.0980624 to 0.0980624
Heightened Def Con from 0.0982446 to 0.0982446
Heightened Def Con from 0.0983355 to 0.0983355
Heightened Def Con from 0.0984264 to 0.0984264
Heightened Def Con from 0.0986078 to 0.0986078
Heightened Def Con from 0.098789 to 0.098789
Heightened Def Con from 0.0989699 to 0.0989699
Heightened Def Con from 0.0991504 to 0.0991504
Heightened Def Con from 0.0993307 to 0.0993307
Heightened Def Con from 0.0996005 to 0.0996005
Heightened Def Con from 0.0996902 to 0.0996902
Heightened Def Con from 0.0999591 to 0.0999591
Heightened Def Con from 0.0999592 to 0.0999592
Heightened Def Con from 0.100138 to 0.100138
Heightened Def Con from 0.100495 to 0.100495
Heightened Def Con from 0.100939 to 0.100939
Heightened Def Con from 0.101294 to 0.101294
Heightened Def Con from 0.101382 to 0.101382
Heightened Def Con from 0.101559 to 0.101559
Heightened Def Con from 0.101647 to 0.101647
Heightened Def Con from 0.101823 to 0.101823
Heightened Def Con from 0.101999 to 0.101999
Heightened Def Con from 0.102087 to 0.102087
Heightened Def Con from 0.102262 to 0.102262
Heightened Def Con from 0.102437 to 0.102437
Heightened Def Con from 0.1027 to 0.1027
Heightened Def Con from 0.103396 to 0.103396
Heightened Def Con from 0.103569 to 0.103569
Heightened Def Con from 0.103656 to 0.103656
Heightened Def Con from 0.103743 to 0.103743
Heightened Def Con from 0.103916 to 0.103916
Heightened Def Con from 0.104002 to 0.104002
Heightened Def Con from 0.104261 to 0.104261
Heightened Def Con from 0.104347 to 0.104347
Heightened Def Con from 0.105033 to 0.105033
Heightened Def Con from 0.105119 to 0.105119
Heightened Def Con from 0.105204 to 0.105204
Heightened Def Con from 0.105375 to 0.105375
Heightened Def Con from 0.10546 to 0.10546
Heightened Def Con from 0.10563 to 0.10563
Heightened Def Con from 0.105801 to 0.105801
Heightened Def Con from 0.10597 to 0.10597
Heightened Def Con from 0.106055 to 0.106055
Heightened Def Con from 0.106225 to 0.106225
Heightened Def Con from 0.10631 to 0.10631
Heightened Def Con from 0.106479 to 0.106479
Heightened Def Con from 0.106732 to 0.106732
Heightened Def Con from 0.106817 to 0.106817
Heightened Def Con from 0.107069 to 0.107069
Heightened Def Con from 0.107489 to 0.107489
Heightened Def Con from 0.107657 to 0.107657
Heightened Def Con from 0.107824 to 0.107824
Heightened Def Con from 0.108074 to 0.108074
Heightened Def Con from 0.108324 to 0.108324
Heightened Def Con from 0.108408 to 0.108408
Heightened Def Con from 0.108823 to 0.108823
Heightened Def Con from 0.109071 to 0.109071
Heightened Def Con from 0.109237 to 0.109237
Heightened Def Con from 0.109402 to 0.109402
Heightened Def Con from 0.109896 to 0.109896
Heightened Def Con from 0.109978 to 0.109978
Heightened Def Con from 0.110142 to 0.110142
Heightened Def Con from 0.11047 to 0.11047
Heightened Def Con from 0.110552 to 0.110552
Heightened Def Con from 0.111042 to 0.111042
Heightened Def Con from 0.111123 to 0.111123
Heightened Def Con from 0.111286 to 0.111286
Heightened Def Con from 0.11153 to 0.11153
Heightened Def Con from 0.111611 to 0.111611
Heightened Def Con from 0.111773 to 0.111773
Heightened Def Con from 0.112419 to 0.112419
Heightened Def Con from 0.11258 to 0.11258
Heightened Def Con from 0.11266 to 0.11266
Heightened Def Con from 0.112821 to 0.112821
Heightened Def Con from 0.113062 to 0.113062
Heightened Def Con from 0.113142 to 0.113142
Heightened Def Con from 0.113222 to 0.113222
Heightened Def Con from 0.113462 to 0.113462
Heightened Def Con from 0.113702 to 0.113702
Heightened Def Con from 0.113782 to 0.113782
Heightened Def Con from 0.113861 to 0.113861
Heightened Def Con from 0.114021 to 0.114021
Heightened Def Con from 0.1141 to 0.1141
Heightened Def Con from 0.11418 to 0.11418
Heightened Def Con from 0.114339 to 0.114339
Heightened Def Con from 0.114735 to 0.114735
Heightened Def Con from 0.114893 to 0.114893
Heightened Def Con from 0.115051 to 0.115051
Heightened Def Con from 0.11513 to 0.11513
Heightened Def Con from 0.115446 to 0.115446
Heightened Def Con from 0.115525 to 0.115525
Heightened Def Con from 0.115682 to 0.115682
Heightened Def Con from 0.115761 to 0.115761
Heightened Def Con from 0.115996 to 0.115996
Heightened Def Con from 0.116231 to 0.116231
Heightened Def Con from 0.116388 to 0.116388
Heightened Def Con from 0.116622 to 0.116622
Heightened Def Con from 0.1167 to 0.1167
Heightened Def Con from 0.116778 to 0.116778
Heightened Def Con from 0.116856 to 0.116856
Heightened Def Con from 0.11709 to 0.11709
Heightened Def Con from 0.117245 to 0.117245
Heightened Def Con from 0.117556 to 0.117556
Heightened Def Con from 0.117556 to 0.117556
Heightened Def Con from 0.117634 to 0.117634
Heightened Def Con from 0.117711 to 0.117711
Heightened Def Con from 0.117866 to 0.117866
Heightened Def Con from 0.118098 to 0.118098
Heightened Def Con from 0.118175 to 0.118175
Heightened Def Con from 0.118252 to 0.118252
Heightened Def Con from 0.118329 to 0.118329
Heightened Def Con from 0.118792 to 0.118792
Heightened Def Con from 0.118868 to 0.118868
Heightened Def Con from 0.118945 to 0.118945
Heightened Def Con from 0.119175 to 0.119175
Heightened Def Con from 0.119252 to 0.119252
Heightened Def Con from 0.119329 to 0.119329
Heightened Def Con from 0.119711 to 0.119711
Heightened Def Con from 0.11994 to 0.11994
Heightened Def Con from 0.120016 to 0.120016
Heightened Def Con from 0.120093 to 0.120093
Heightened Def Con from 0.120245 to 0.120245
Heightened Def Con from 0.120321 to 0.120321
Heightened Def Con from 0.120625 to 0.120625
Heightened Def Con from 0.120852 to 0.120852
Heightened Def Con from 0.121231 to 0.121231
Heightened Def Con from 0.121306 to 0.121306
Heightened Def Con from 0.121457 to 0.121457
Heightened Def Con from 0.121608 to 0.121608
Heightened Def Con from 0.121834 to 0.121834
Heightened Def Con from 0.121985 to 0.121985
Heightened Def Con from 0.12206 to 0.12206
Heightened Def Con from 0.122435 to 0.122435
Heightened Def Con from 0.12251 to 0.12251
Heightened Def Con from 0.122735 to 0.122735
Heightened Def Con from 0.12281 to 0.12281
Heightened Def Con from 0.123183 to 0.123183
Heightened Def Con from 0.123407 to 0.123407
Heightened Def Con from 0.12363 to 0.12363
Heightened Def Con from 0.123853 to 0.123854
Heightened Def Con from 0.123928 to 0.123928
Heightened Def Con from 0.124224 to 0.124224
Heightened Def Con from 0.124742 to 0.124742
Heightened Def Con from 0.124964 to 0.124964
Heightened Def Con from 0.125185 to 0.125185
Heightened Def Con from 0.125258 to 0.125258
Heightened Def Con from 0.125405 to 0.125405
Heightened Def Con from 0.125626 to 0.125626
Heightened Def Con from 0.125699 to 0.125699
Heightened Def Con from 0.125992 to 0.125992
Heightened Def Con from 0.126139 to 0.126139
Heightened Def Con from 0.126431 to 0.126431
Heightened Def Con from 0.126504 to 0.126504
Heightened Def Con from 0.12665 to 0.12665
Heightened Def Con from 0.126723 to 0.126723
Heightened Def Con from 0.126869 to 0.126869
Heightened Def Con from 0.127014 to 0.127014
Heightened Def Con from 0.127087 to 0.127087
Heightened Def Con from 0.127232 to 0.127232
Heightened Def Con from 0.127378 to 0.127378
Heightened Def Con from 0.12745 to 0.12745
Heightened Def Con from 0.12774 to 0.12774
Heightened Def Con from 0.127813 to 0.127813
Heightened Def Con from 0.127885 to 0.127885
Heightened Def Con from 0.12803 to 0.12803
Heightened Def Con from 0.128102 to 0.128102
Heightened Def Con from 0.128391 to 0.128391
Heightened Def Con from 0.128535 to 0.128535
Heightened Def Con from 0.128895 to 0.128895
Heightened Def Con from 0.128967 to 0.128967
Heightened Def Con from 0.129039 to 0.129039
Heightened Def Con from 0.129111 to 0.129111
Heightened Def Con from 0.129182 to 0.129182
Heightened Def Con from 0.129254 to 0.129254
Heightened Def Con from 0.129398 to 0.129398
Heightened Def Con from 0.129398 to 0.129398
Heightened Def Con from 0.129756 to 0.129756
Heightened Def Con from 0.129827 to 0.129827
Heightened Def Con from 0.129827 to 0.129827
Heightened Def Con from 0.12997 to 0.12997
Heightened Def Con from 0.130113 to 0.130113
Heightened Def Con from 0.130256 to 0.130256
Heightened Def Con from 0.130327 to 0.130327
Heightened Def Con from 0.130398 to 0.130398
Heightened Def Con from 0.130612 to 0.130612
Heightened Def Con from 0.130683 to 0.130683
Heightened Def Con from 0.130754 to 0.130754
Heightened Def Con from 0.130896 to 0.130896
Heightened Def Con from 0.131038 to 0.131038
Heightened Def Con from 0.13118 to 0.13118
Heightened Def Con from 0.131251 to 0.131251
Heightened Def Con from 0.131393 to 0.131393
Heightened Def Con from 0.131534 to 0.131534
Heightened Def Con from 0.131747 to 0.131747
Heightened Def Con from 0.131817 to 0.131817
Heightened Def Con from 0.1321 to 0.1321
Heightened Def Con from 0.132381 to 0.132381
Heightened Def Con from 0.132452 to 0.132452
Heightened Def Con from 0.132522 to 0.132522
Heightened Def Con from 0.132593 to 0.132593
Heightened Def Con from 0.132663 to 0.132663
Heightened Def Con from 0.132803 to 0.132803
Heightened Def Con from 0.132944 to 0.132944
Heightened Def Con from 0.133014 to 0.133014
Heightened Def Con from 0.133154 to 0.133154
Heightened Def Con from 0.133224 to 0.133224
Heightened Def Con from 0.133294 to 0.133294
Heightened Def Con from 0.133434 to 0.133434
Heightened Def Con from 0.133504 to 0.133504
Heightened Def Con from 0.133574 to 0.133574
Heightened Def Con from 0.133644 to 0.133644
Heightened Def Con from 0.133714 to 0.133714
Heightened Def Con from 0.133784 to 0.133784
Heightened Def Con from 0.133923 to 0.133923
Heightened Def Con from 0.133993 to 0.133993
Heightened Def Con from 0.134133 to 0.134133
Heightened Def Con from 0.134202 to 0.134202
Heightened Def Con from 0.134411 to 0.134411
Heightened Def Con from 0.134481 to 0.134481
Heightened Def Con from 0.13462 to 0.13462
Heightened Def Con from 0.134689 to 0.134689
Heightened Def Con from 0.134759 to 0.134759
Heightened Def Con from 0.134967 to 0.134967
Heightened Def Con from 0.135036 to 0.135036
Heightened Def Con from 0.135105 to 0.135105
Heightened Def Con from 0.135106 to 0.135106
Heightened Def Con from 0.135244 to 0.135244
Heightened Def Con from 0.135313 to 0.135313
Heightened Def Con from 0.135382 to 0.135382
Heightened Def Con from 0.135452 to 0.135452
Heightened Def Con from 0.13559 to 0.13559
Heightened Def Con from 0.135659 to 0.135659
Heightened Def Con from 0.135728 to 0.135728
Heightened Def Con from 0.135797 to 0.135797
Heightened Def Con from 0.135866 to 0.135866
Heightened Def Con from 0.136279 to 0.136279
Heightened Def Con from 0.136417 to 0.136417
Heightened Def Con from 0.136486 to 0.136486
Heightened Def Con from 0.136555 to 0.136555
Heightened Def Con from 0.136692 to 0.136692
Heightened Def Con from 0.136761 to 0.136761
Heightened Def Con from 0.136829 to 0.136829
Heightened Def Con from 0.136898 to 0.136898
Heightened Def Con from 0.137035 to 0.137035
Heightened Def Con from 0.137104 to 0.137104
Heightened Def Con from 0.137172 to 0.137172
Heightened Def Con from 0.13724 to 0.13724
Heightened Def Con from 0.137377 to 0.137377
Heightened Def Con from 0.137446 to 0.137446
Heightened Def Con from 0.137514 to 0.137514
Heightened Def Con from 0.137651 to 0.137651
Heightened Def Con from 0.137787 to 0.137787
Heightened Def Con from 0.137992 to 0.137992
Heightened Def Con from 0.138128 to 0.138128
Heightened Def Con from 0.138196 to 0.138196
Heightened Def Con from 0.138469 to 0.138469
Heightened Def Con from 0.138537 to 0.138537
Heightened Def Con from 0.138605 to 0.138605
Heightened Def Con from 0.138673 to 0.138673
Heightened Def Con from 0.138808 to 0.138808
Heightened Def Con from 0.138876 to 0.138876
Heightened Def Con from 0.138944 to 0.138944
Heightened Def Con from 0.13908 to 0.13908
Heightened Def Con from 0.139147 to 0.139147
Heightened Def Con from 0.13935 to 0.13935
Heightened Def Con from 0.139418 to 0.139418
Heightened Def Con from 0.139486 to 0.139486
Heightened Def Con from 0.139553 to 0.139553
Heightened Def Con from 0.139756 to 0.139756
Heightened Def Con from 0.139823 to 0.139823
Heightened Def Con from 0.139958 to 0.139958
Heightened Def Con from 0.140026 to 0.140026
Heightened Def Con from 0.140093 to 0.140093
Heightened Def Con from 0.140161 to 0.140161
Heightened Def Con from 0.140228 to 0.140228
Heightened Def Con from 0.140228 to 0.140228
Heightened Def Con from 0.140295 to 0.140295
Heightened Def Con from 0.140363 to 0.140363
Heightened Def Con from 0.140564 to 0.140564
Heightened Def Con from 0.140631 to 0.140631
Heightened Def Con from 0.140833 to 0.140833
Heightened Def Con from 0.140967 to 0.140967
Heightened Def Con from 0.141035 to 0.141035
Heightened Def Con from 0.141169 to 0.141169
Heightened Def Con from 0.141236 to 0.141236
Heightened Def Con from 0.141302 to 0.141302
Heightened Def Con from 0.141369 to 0.141369
Heightened Def Con from 0.141436 to 0.141436
Heightened Def Con from 0.14157 to 0.14157
Heightened Def Con from 0.141637 to 0.141637
Heightened Def Con from 0.141837 to 0.141837
Heightened Def Con from 0.141904 to 0.141904
Heightened Def Con from 0.142171 to 0.142171
Heightened Def Con from 0.142237 to 0.142237
Heightened Def Con from 0.142304 to 0.142304
Heightened Def Con from 0.142371 to 0.142371
Heightened Def Con from 0.142437 to 0.142437
Heightened Def Con from 0.14257 to 0.14257
Heightened Def Con from 0.142637 to 0.142637
Heightened Def Con from 0.142703 to 0.142703
Heightened Def Con from 0.14277 to 0.14277
Heightened Def Con from 0.142902 to 0.142902
Heightened Def Con from 0.143035 to 0.143035
Heightened Def Con from 0.143101 to 0.143101
Heightened Def Con from 0.1433 to 0.1433
Heightened Def Con from 0.143499 to 0.143499
Heightened Def Con from 0.143631 to 0.143631
Heightened Def Con from 0.143763 to 0.143763
Heightened Def Con from 0.143763 to 0.143763
Heightened Def Con from 0.143962 to 0.143962
Heightened Def Con from 0.144028 to 0.144028
Heightened Def Con from 0.144094 to 0.144094
Heightened Def Con from 0.144225 to 0.144225
Heightened Def Con from 0.144357 to 0.144357
Heightened Def Con from 0.144423 to 0.144423
Heightened Def Con from 0.144489 to 0.144489
Heightened Def Con from 0.144686 to 0.144686
Heightened Def Con from 0.144884 to 0.144884
Heightened Def Con from 0.144949 to 0.144949
Heightened Def Con from 0.145015 to 0.145015
Heightened Def Con from 0.145146 to 0.145146
Heightened Def Con from 0.145278 to 0.145278
Heightened Def Con from 0.145409 to 0.145409
Heightened Def Con from 0.145474 to 0.145474
Heightened Def Con from 0.14554 to 0.14554
Heightened Def Con from 0.14567 to 0.14567
Heightened Def Con from 0.145801 to 0.145801
Heightened Def Con from 0.145932 to 0.145932
Heightened Def Con from 0.145932 to 0.145932
Heightened Def Con from 0.146128 to 0.146128
Heightened Def Con from 0.146193 to 0.146193
Heightened Def Con from 0.146258 to 0.146258
Heightened Def Con from 0.146389 to 0.146389
Heightened Def Con from 0.146454 to 0.146454
Heightened Def Con from 0.146519 to 0.146519
Heightened Def Con from 0.146584 to 0.146584
Heightened Def Con from 0.14665 to 0.14665
Heightened Def Con from 0.14678 to 0.14678
Heightened Def Con from 0.146845 to 0.146845
Heightened Def Con from 0.14691 to 0.14691
Heightened Def Con from 0.146975 to 0.146975
Heightened Def Con from 0.146975 to 0.146975
Heightened Def Con from 0.147105 to 0.147105
Heightened Def Con from 0.14717 to 0.14717
Heightened Def Con from 0.147235 to 0.147235
Heightened Def Con from 0.147299 to 0.147299
Heightened Def Con from 0.147494 to 0.147494
Heightened Def Con from 0.147688 to 0.147688
Heightened Def Con from 0.147883 to 0.147883
Heightened Def Con from 0.147947 to 0.147947
Heightened Def Con from 0.148012 to 0.148012
Heightened Def Con from 0.148077 to 0.148077
Heightened Def Con from 0.148206 to 0.148206
Heightened Def Con from 0.148271 to 0.148271
Heightened Def Con from 0.148335 to 0.148335
Heightened Def Con from 0.1484 to 0.1484
Heightened Def Con from 0.148464 to 0.148464
Heightened Def Con from 0.148593 to 0.148593
Heightened Def Con from 0.148658 to 0.148658
Heightened Def Con from 0.148722 to 0.148722
Heightened Def Con from 0.148851 to 0.148851
Heightened Def Con from 0.148915 to 0.148915
Heightened Def Con from 0.14898 to 0.14898
Heightened Def Con from 0.149044 to 0.149044
Heightened Def Con from 0.149108 to 0.149108
Heightened Def Con from 0.149301 to 0.149301
Heightened Def Con from 0.149301 to 0.149301
Heightened Def Con from 0.149494 to 0.149494
Heightened Def Con from 0.149558 to 0.149558
Heightened Def Con from 0.149751 to 0.149751
Heightened Def Con from 0.149943 to 0.149943
Heightened Def Con from 0.150007 to 0.150007
Heightened Def Con from 0.150327 to 0.150327
Heightened Def Con from 0.150391 to 0.150391
Heightened Def Con from 0.150455 to 0.150455
Heightened Def Con from 0.150582 to 0.150582
Heightened Def Con from 0.150646 to 0.150646
Heightened Def Con from 0.15071 to 0.15071
Heightened Def Con from 0.150774 to 0.150774
Heightened Def Con from 0.150838 to 0.150838
Heightened Def Con from 0.150901 to 0.150901
Heightened Def Con from 0.151029 to 0.151029
Heightened Def Con from 0.151093 to 0.151093
Heightened Def Con from 0.15122 to 0.15122
Heightened Def Con from 0.15122 to 0.15122
Heightened Def Con from 0.151283 to 0.151283
Heightened Def Con from 0.151284 to 0.151284
Heightened Def Con from 0.151474 to 0.151474
Heightened Def Con from 0.151665 to 0.151665
Heightened Def Con from 0.151728 to 0.151728
Heightened Def Con from 0.151919 to 0.151919
Heightened Def Con from 0.151982 to 0.151982
Heightened Def Con from 0.152046 to 0.152046
Heightened Def Con from 0.152172 to 0.152172
Heightened Def Con from 0.152363 to 0.152363
Heightened Def Con from 0.152489 to 0.152489
Heightened Def Con from 0.152553 to 0.152553
Heightened Def Con from 0.152742 to 0.152742
Heightened Def Con from 0.152805 to 0.152805
Heightened Def Con from 0.152869 to 0.152869
Heightened Def Con from 0.152995 to 0.152995
Heightened Def Con from 0.153058 to 0.153058
Heightened Def Con from 0.153121 to 0.153121
Heightened Def Con from 0.153184 to 0.153184
Heightened Def Con from 0.153247 to 0.153247
Heightened Def Con from 0.15331 to 0.15331
Heightened Def Con from 0.153436 to 0.153436
Heightened Def Con from 0.153562 to 0.153562
Heightened Def Con from 0.153625 to 0.153625
Heightened Def Con from 0.153751 to 0.153751
Heightened Def Con from 0.153814 to 0.153814
Heightened Def Con from 0.153876 to 0.153876
Heightened Def Con from 0.153939 to 0.153939
Heightened Def Con from 0.154002 to 0.154002
Heightened Def Con from 0.154191 to 0.154191
Heightened Def Con from 0.154253 to 0.154253
Heightened Def Con from 0.154379 to 0.154379
Heightened Def Con from 0.154504 to 0.154504
Heightened Def Con from 0.154567 to 0.154567
Heightened Def Con from 0.154629 to 0.154629
Heightened Def Con from 0.154755 to 0.154755
Heightened Def Con from 0.15488 to 0.15488
Heightened Def Con from 0.155005 to 0.155005
Heightened Def Con from 0.155067 to 0.155067
Heightened Def Con from 0.15513 to 0.15513
Heightened Def Con from 0.155255 to 0.155255
Heightened Def Con from 0.15538 to 0.15538
Heightened Def Con from 0.155442 to 0.155442
Heightened Def Con from 0.155504 to 0.155504
Heightened Def Con from 0.155567 to 0.155567
Heightened Def Con from 0.155629 to 0.155629
Heightened Def Con from 0.155691 to 0.155691
Heightened Def Con from 0.156065 to 0.156065
Heightened Def Con from 0.156127 to 0.156127
Heightened Def Con from 0.156376 to 0.156376
Heightened Def Con from 0.1565 to 0.1565
Heightened Def Con from 0.156562 to 0.156562
Heightened Def Con from 0.156624 to 0.156624
Heightened Def Con from 0.156624 to 0.156624
Heightened Def Con from 0.15681 to 0.15681
Heightened Def Con from 0.156872 to 0.156872
Heightened Def Con from 0.156934 to 0.156934
Heightened Def Con from 0.15712 to 0.15712
Heightened Def Con from 0.157367 to 0.157367
Heightened Def Con from 0.157429 to 0.157429
Heightened Def Con from 0.157491 to 0.157491
Heightened Def Con from 0.1578 to 0.1578
Heightened Def Con from 0.157862 to 0.157862
Heightened Def Con from 0.157923 to 0.157923
Heightened Def Con from 0.157985 to 0.157985
Heightened Def Con from 0.158047 to 0.158047
Heightened Def Con from 0.158108 to 0.158108
Heightened Def Con from 0.15817 to 0.15817
Heightened Def Con from 0.158478 to 0.158478
Heightened Def Con from 0.158539 to 0.158539
Heightened Def Con from 0.158662 to 0.158662
Heightened Def Con from 0.158785 to 0.158785
Heightened Def Con from 0.158847 to 0.158847
Heightened Def Con from 0.15897 to 0.15897
Heightened Def Con from 0.159031 to 0.159031
Heightened Def Con from 0.159092 to 0.159092
Heightened Def Con from 0.159154 to 0.159154
Heightened Def Con from 0.159215 to 0.159215
Heightened Def Con from 0.159276 to 0.159276
Heightened Def Con from 0.159399 to 0.159399
Heightened Def Con from 0.159399 to 0.159399
Heightened Def Con from 0.15946 to 0.15946
Heightened Def Con from 0.159522 to 0.159522
Heightened Def Con from 0.159583 to 0.159583
Heightened Def Con from 0.159644 to 0.159644
Heightened Def Con from 0.159705 to 0.159705
Heightened Def Con from 0.159766 to 0.159766
Heightened Def Con from 0.159828 to 0.159828
Heightened Def Con from 0.159828 to 0.159828
Heightened Def Con from 0.159889 to 0.159889
Heightened Def Con from 0.15995 to 0.15995
Heightened Def Con from 0.160255 to 0.160255
Heightened Def Con from 0.160316 to 0.160316
Heightened Def Con from 0.160377 to 0.160377
Heightened Def Con from 0.160499 to 0.160499
Heightened Def Con from 0.16056 to 0.16056
Heightened Def Con from 0.160682 to 0.160682
Heightened Def Con from 0.160804 to 0.160804
Heightened Def Con from 0.160865 to 0.160865
Heightened Def Con from 0.160926 to 0.160926
Heightened Def Con from 0.160987 to 0.160987
Heightened Def Con from 0.161048 to 0.161048
Heightened Def Con from 0.161048 to 0.161048
Heightened Def Con from 0.161108 to 0.161108
Heightened Def Con from 0.161169 to 0.161169
Heightened Def Con from 0.161291 to 0.161291
Heightened Def Con from 0.161473 to 0.161473
Heightened Def Con from 0.161594 to 0.161594
Heightened Def Con from 0.161716 to 0.161716
Heightened Def Con from 0.161776 to 0.161776
Heightened Def Con from 0.161837 to 0.161837
Heightened Def Con from 0.161898 to 0.161898
Heightened Def Con from 0.162079 to 0.162079
Heightened Def Con from 0.16214 to 0.16214
Heightened Def Con from 0.162261 to 0.162261
Heightened Def Con from 0.162382 to 0.162382
Heightened Def Con from 0.162442 to 0.162442
Heightened Def Con from 0.162563 to 0.162563
Heightened Def Con from 0.162624 to 0.162624
Heightened Def Con from 0.162745 to 0.162745
Heightened Def Con from 0.162805 to 0.162805
Heightened Def Con from 0.162926 to 0.162926
Heightened Def Con from 0.162986 to 0.162986
Heightened Def Con from 0.163046 to 0.163046
Heightened Def Con from 0.163107 to 0.163107
Heightened Def Con from 0.163227 to 0.163227
Heightened Def Con from 0.163348 to 0.163348
Heightened Def Con from 0.163348 to 0.163348
Heightened Def Con from 0.163408 to 0.163408
Heightened Def Con from 0.163468 to 0.163468
Heightened Def Con from 0.163528 to 0.163528
Heightened Def Con from 0.163649 to 0.163649
Heightened Def Con from 0.163709 to 0.163709
Heightened Def Con from 0.163829 to 0.163829
Heightened Def Con from 0.163889 to 0.163889
Heightened Def Con from 0.163949 to 0.163949
Heightened Def Con from 0.164009 to 0.164009
Heightened Def Con from 0.164069 to 0.164069
Heightened Def Con from 0.164129 to 0.164129
Heightened Def Con from 0.164189 to 0.164189
Heightened Def Con from 0.164309 to 0.164309
Heightened Def Con from 0.164429 to 0.164429
Heightened Def Con from 0.164489 to 0.164489
Heightened Def Con from 0.164549 to 0.164549
Heightened Def Con from 0.164609 to 0.164609
Heightened Def Con from 0.164849 to 0.164849
Heightened Def Con from 0.164909 to 0.164909
Heightened Def Con from 0.164969 to 0.164969
Heightened Def Con from 0.165028 to 0.165028
Heightened Def Con from 0.165387 to 0.165387
Heightened Def Con from 0.165506 to 0.165506
Heightened Def Con from 0.165506 to 0.165506
Heightened Def Con from 0.165566 to 0.165566
Heightened Def Con from 0.165685 to 0.165685
Heightened Def Con from 0.165745 to 0.165745
Heightened Def Con from 0.165983 to 0.165983
Heightened Def Con from 0.166043 to 0.166043
Heightened Def Con from 0.166103 to 0.166103
Heightened Def Con from 0.166281 to 0.166281
Heightened Def Con from 0.166341 to 0.166341
Heightened Def Con from 0.166459 to 0.166459
Heightened Def Con from 0.166519 to 0.166519
Heightened Def Con from 0.166638 to 0.166638
Heightened Def Con from 0.166638 to 0.166638
Heightened Def Con from 0.166757 to 0.166757
Heightened Def Con from 0.166816 to 0.166816
Heightened Def Con from 0.166935 to 0.166935
Heightened Def Con from 0.166994 to 0.166994
Heightened Def Con from 0.167053 to 0.167053
Heightened Def Con from 0.167113 to 0.167113
Heightened Def Con from 0.167172 to 0.167172
Heightened Def Con from 0.167231 to 0.167231
Heightened Def Con from 0.167409 to 0.167409
Heightened Def Con from 0.167468 to 0.167468
Heightened Def Con from 0.167527 to 0.167527
Heightened Def Con from 0.167646 to 0.167646
Heightened Def Con from 0.167823 to 0.167823
Heightened Def Con from 0.168 to 0.168
Heightened Def Con from 0.168118 to 0.168118
Heightened Def Con from 0.168177 to 0.168177
Heightened Def Con from 0.168236 to 0.168236
Heightened Def Con from 0.168413 to 0.168413
Heightened Def Con from 0.168826 to 0.168826
Heightened Def Con from 0.168885 to 0.168885
Heightened Def Con from 0.169002 to 0.169002
Heightened Def Con from 0.169061 to 0.169061
Heightened Def Con from 0.169238 to 0.169238
Heightened Def Con from 0.169296 to 0.169296
Heightened Def Con from 0.169414 to 0.169414
Heightened Def Con from 0.169473 to 0.169473
Heightened Def Con from 0.169531 to 0.169531
Heightened Def Con from 0.169649 to 0.169649
Heightened Def Con from 0.169883 to 0.169883
Heightened Def Con from 0.169942 to 0.169942
Heightened Def Con from 0.170001 to 0.170001
Heightened Def Con from 0.170059 to 0.170059
Heightened Def Con from 0.170118 to 0.170118
Heightened Def Con from 0.170176 to 0.170176
Heightened Def Con from 0.170235 to 0.170235
Heightened Def Con from 0.170293 to 0.170293
Heightened Def Con from 0.170352 to 0.170352
Heightened Def Con from 0.170527 to 0.170527
Heightened Def Con from 0.170586 to 0.170586
Heightened Def Con from 0.170703 to 0.170703
Heightened Def Con from 0.170761 to 0.170761
Heightened Def Con from 0.170819 to 0.170819
Heightened Def Con from 0.170878 to 0.170878
Heightened Def Con from 0.170936 to 0.170936
Heightened Def Con from 0.170995 to 0.170995
Heightened Def Con from 0.171053 to 0.171053
Heightened Def Con from 0.171111 to 0.171111
Heightened Def Con from 0.171403 to 0.171403
Heightened Def Con from 0.171461 to 0.171461
Heightened Def Con from 0.171519 to 0.171519
Heightened Def Con from 0.171636 to 0.171636
Heightened Def Con from 0.171694 to 0.171694
Heightened Def Con from 0.171752 to 0.171752
Heightened Def Con from 0.171752 to 0.171752
Heightened Def Con from 0.17181 to 0.17181
Heightened Def Con from 0.171869 to 0.171869
Heightened Def Con from 0.172043 to 0.172043
Heightened Def Con from 0.172101 to 0.172101
Heightened Def Con from 0.172217 to 0.172217
Heightened Def Con from 0.172275 to 0.172275
Heightened Def Con from 0.172333 to 0.172333
Heightened Def Con from 0.172391 to 0.172391
Heightened Def Con from 0.172449 to 0.172449
Heightened Def Con from 0.172565 to 0.172565
Heightened Def Con from 0.172623 to 0.172623
Heightened Def Con from 0.172798 to 0.172798
Heightened Def Con from 0.172856 to 0.172856
Heightened Def Con from 0.172972 to 0.172972
Heightened Def Con from 0.173087 to 0.173087
Heightened Def Con from 0.173145 to 0.173145
Heightened Def Con from 0.173377 to 0.173377
Heightened Def Con from 0.173435 to 0.173435
Heightened Def Con from 0.173492 to 0.173492
Heightened Def Con from 0.17355 to 0.17355
Heightened Def Con from 0.173608 to 0.173608
Heightened Def Con from 0.173666 to 0.173666
Heightened Def Con from 0.173781 to 0.173781
Heightened Def Con from 0.173839 to 0.173839
Heightened Def Con from 0.173897 to 0.173897
Heightened Def Con from 0.173954 to 0.173954
Heightened Def Con from 0.174012 to 0.174012
Heightened Def Con from 0.17407 to 0.17407
Heightened Def Con from 0.174127 to 0.174127
Heightened Def Con from 0.174185 to 0.174185
Heightened Def Con from 0.174185 to 0.174185
Heightened Def Con from 0.174358 to 0.174358
Heightened Def Con from 0.174415 to 0.174415
Heightened Def Con from 0.174473 to 0.174473
Heightened Def Con from 0.174588 to 0.174588
Heightened Def Con from 0.174646 to 0.174646
Heightened Def Con from 0.174703 to 0.174703
Heightened Def Con from 0.174761 to 0.174761
Heightened Def Con from 0.174818 to 0.174818
Heightened Def Con from 0.174933 to 0.174933
Heightened Def Con from 0.175163 to 0.175163
Heightened Def Con from 0.17522 to 0.17522
Heightened Def Con from 0.175278 to 0.175278
Heightened Def Con from 0.175335 to 0.175335
Heightened Def Con from 0.175335 to 0.175335
Heightened Def Con from 0.175392 to 0.175392
Heightened Def Con from 0.17545 to 0.17545
Heightened Def Con from 0.175507 to 0.175507
Heightened Def Con from 0.175564 to 0.175564
Heightened Def Con from 0.175622 to 0.175622
Heightened Def Con from 0.175679 to 0.175679
Heightened Def Con from 0.175736 to 0.175736
Heightened Def Con from 0.175736 to 0.175736
Heightened Def Con from 0.175794 to 0.175794
Heightened Def Con from 0.175965 to 0.175965
Heightened Def Con from 0.176194 to 0.176194
Heightened Def Con from 0.176194 to 0.176194
Heightened Def Con from 0.176251 to 0.176251
Heightened Def Con from 0.176309 to 0.176309
Heightened Def Con from 0.176423 to 0.176423
Heightened Def Con from 0.17648 to 0.17648
Heightened Def Con from 0.176537 to 0.176537
Heightened Def Con from 0.176823 to 0.176823
Heightened Def Con from 0.17688 to 0.17688
Heightened Def Con from 0.176937 to 0.176937
Heightened Def Con from 0.176994 to 0.176994
Heightened Def Con from 0.177108 to 0.177108
Heightened Def Con from 0.177336 to 0.177336
Heightened Def Con from 0.177507 to 0.177507
Heightened Def Con from 0.177507 to 0.177507
Heightened Def Con from 0.177564 to 0.177564
Heightened Def Con from 0.177905 to 0.177905
Heightened Def Con from 0.177962 to 0.177962
Heightened Def Con from 0.178132 to 0.178132
Heightened Def Con from 0.178245 to 0.178245
Heightened Def Con from 0.178359 to 0.178359
Heightened Def Con from 0.178529 to 0.178529
Heightened Def Con from 0.178642 to 0.178642
Heightened Def Con from 0.178756 to 0.178756
Heightened Def Con from 0.178812 to 0.178812
Heightened Def Con from 0.178812 to 0.178812
Heightened Def Con from 0.178869 to 0.178869
Heightened Def Con from 0.178926 to 0.178926
Heightened Def Con from 0.179039 to 0.179039
Heightened Def Con from 0.179208 to 0.179208
Heightened Def Con from 0.179265 to 0.179265
Heightened Def Con from 0.179322 to 0.179322
Heightened Def Con from 0.179378 to 0.179378
Heightened Def Con from 0.179378 to 0.179378
Heightened Def Con from 0.179548 to 0.179548
Heightened Def Con from 0.179717 to 0.179717
Heightened Def Con from 0.179886 to 0.179886
Heightened Def Con from 0.179943 to 0.179943
Heightened Def Con from 0.180055 to 0.180055
Heightened Def Con from 0.180112 to 0.180112
Heightened Def Con from 0.180224 to 0.180224
Heightened Def Con from 0.180281 to 0.180281
Heightened Def Con from 0.180393 to 0.180393
Heightened Def Con from 0.180619 to 0.180619
Heightened Def Con from 0.180675 to 0.180675
Heightened Def Con from 0.180675 to 0.180675
Heightened Def Con from 0.180787 to 0.180787
Heightened Def Con from 0.180843 to 0.180843
Heightened Def Con from 0.180956 to 0.180956
Heightened Def Con from 0.181012 to 0.181012
Heightened Def Con from 0.181068 to 0.181068
Heightened Def Con from 0.181068 to 0.181068
Heightened Def Con from 0.181293 to 0.181293
Heightened Def Con from 0.181349 to 0.181349
Heightened Def Con from 0.181461 to 0.181461
Heightened Def Con from 0.181517 to 0.181517
Heightened Def Con from 0.181573 to 0.181573
Heightened Def Con from 0.181685 to 0.181685
Heightened Def Con from 0.181853 to 0.181853
Heightened Def Con from 0.181909 to 0.181909
Heightened Def Con from 0.182021 to 0.182021
Heightened Def Con from 0.182133 to 0.182133
Heightened Def Con from 0.182301 to 0.182301
Heightened Def Con from 0.182636 to 0.182636
Heightened Def Con from 0.182692 to 0.182692
Heightened Def Con from 0.182748 to 0.182748
Heightened Def Con from 0.182804 to 0.182804
Heightened Def Con from 0.18286 to 0.18286
Heightened Def Con from 0.18286 to 0.18286
Heightened Def Con from 0.182915 to 0.182915
Heightened Def Con from 0.182971 to 0.182971
Heightened Def Con from 0.183027 to 0.183027
Heightened Def Con from 0.183083 to 0.183083
Heightened Def Con from 0.183138 to 0.183138
Heightened Def Con from 0.183194 to 0.183194
Heightened Def Con from 0.18325 to 0.18325
Heightened Def Con from 0.18325 to 0.18325
Heightened Def Con from 0.183306 to 0.183306
Heightened Def Con from 0.183528 to 0.183528
Heightened Def Con from 0.183751 to 0.183751
Heightened Def Con from 0.183807 to 0.183807
Heightened Def Con from 0.183862 to 0.183862
Heightened Def Con from 0.184085 to 0.184085
Heightened Def Con from 0.184196 to 0.184196
Heightened Def Con from 0.184251 to 0.184251
Heightened Def Con from 0.184362 to 0.184362
Heightened Def Con from 0.184473 to 0.184473
Heightened Def Con from 0.184695 to 0.184695
Heightened Def Con from 0.18475 to 0.18475
Heightened Def Con from 0.184861 to 0.184861
Heightened Def Con from 0.184917 to 0.184917
Heightened Def Con from 0.184972 to 0.184972
Heightened Def Con from 0.185027 to 0.185027
Heightened Def Con from 0.185083 to 0.185083
Heightened Def Con from 0.185138 to 0.185138
Heightened Def Con from 0.185249 to 0.185249
Heightened Def Con from 0.185415 to 0.185415
Heightened Def Con from 0.18547 to 0.18547
Heightened Def Con from 0.185525 to 0.185525
Heightened Def Con from 0.185581 to 0.185581
Heightened Def Con from 0.185691 to 0.185691
Heightened Def Con from 0.185912 to 0.185912
Heightened Def Con from 0.185967 to 0.185967
Heightened Def Con from 0.186243 to 0.186243
Heightened Def Con from 0.186409 to 0.186409
Heightened Def Con from 0.186519 to 0.186519
Heightened Def Con from 0.186574 to 0.186574
Heightened Def Con from 0.186629 to 0.186629
Heightened Def Con from 0.186739 to 0.186739
Heightened Def Con from 0.186794 to 0.186794
Heightened Def Con from 0.186849 to 0.186849
Heightened Def Con from 0.186959 to 0.186959
Heightened Def Con from 0.187014 to 0.187014
Heightened Def Con from 0.187014 to 0.187014
Heightened Def Con from 0.187069 to 0.187069
Heightened Def Con from 0.187124 to 0.187124
Heightened Def Con from 0.187179 to 0.187179
Heightened Def Con from 0.187234 to 0.187234
Heightened Def Con from 0.187289 to 0.187289
Heightened Def Con from 0.187509 to 0.187509
Heightened Def Con from 0.187563 to 0.187563
Heightened Def Con from 0.187673 to 0.187673
Heightened Def Con from 0.187728 to 0.187728
Heightened Def Con from 0.187783 to 0.187783
Heightened Def Con from 0.187838 to 0.187838
Heightened Def Con from 0.187893 to 0.187893
Heightened Def Con from 0.188002 to 0.188002
Heightened Def Con from 0.188057 to 0.188057
Heightened Def Con from 0.188112 to 0.188112
Heightened Def Con from 0.188167 to 0.188167
Heightened Def Con from 0.188221 to 0.188221
Heightened Def Con from 0.18844 to 0.18844
Heightened Def Con from 0.188495 to 0.188495
Heightened Def Con from 0.18855 to 0.18855
Heightened Def Con from 0.188604 to 0.188604
Heightened Def Con from 0.188659 to 0.188659
Heightened Def Con from 0.188659 to 0.188659
Heightened Def Con from 0.188768 to 0.188768
Heightened Def Con from 0.188823 to 0.188823
Heightened Def Con from 0.188878 to 0.188878
Heightened Def Con from 0.188932 to 0.188932
Heightened Def Con from 0.188987 to 0.188987
Heightened Def Con from 0.189096 to 0.189096
Heightened Def Con from 0.189151 to 0.189151
Heightened Def Con from 0.189205 to 0.189205
Heightened Def Con from 0.18926 to 0.18926
Heightened Def Con from 0.189315 to 0.189315
Heightened Def Con from 0.189533 to 0.189533
Heightened Def Con from 0.189642 to 0.189642
Heightened Def Con from 0.189696 to 0.189696
Heightened Def Con from 0.189805 to 0.189805
Heightened Def Con from 0.190077 to 0.190077
Heightened Def Con from 0.190186 to 0.190186
Heightened Def Con from 0.190241 to 0.190241
Heightened Def Con from 0.190295 to 0.190295
Heightened Def Con from 0.190458 to 0.190458
Heightened Def Con from 0.190567 to 0.190567
Heightened Def Con from 0.190621 to 0.190621
Heightened Def Con from 0.190621 to 0.190621
Heightened Def Con from 0.190675 to 0.190675
Heightened Def Con from 0.19073 to 0.19073
Heightened Def Con from 0.190784 to 0.190784
Heightened Def Con from 0.190893 to 0.190893
Heightened Def Con from 0.190947 to 0.190947
Heightened Def Con from 0.191001 to 0.191001
Heightened Def Con from 0.19111 to 0.19111
Heightened Def Con from 0.191327 to 0.191327
Heightened Def Con from 0.191381 to 0.191381
Heightened Def Con from 0.191435 to 0.191435
Heightened Def Con from 0.191597 to 0.191597
Heightened Def Con from 0.191652 to 0.191652
Heightened Def Con from 0.191868 to 0.191868
Heightened Def Con from 0.191868 to 0.191868
Heightened Def Con from 0.191922 to 0.191922
Heightened Def Con from 0.192085 to 0.192085
Heightened Def Con from 0.192139 to 0.192139
Heightened Def Con from 0.192247 to 0.192247
Heightened Def Con from 0.192301 to 0.192301
Heightened Def Con from 0.192355 to 0.192355
Heightened Def Con from 0.192517 to 0.192517
Heightened Def Con from 0.192571 to 0.192571
Heightened Def Con from 0.192625 to 0.192625
Heightened Def Con from 0.192679 to 0.192679
Heightened Def Con from 0.192786 to 0.192786
Heightened Def Con from 0.19284 to 0.19284
Heightened Def Con from 0.19284 to 0.19284
Heightened Def Con from 0.192948 to 0.192948
Heightened Def Con from 0.193002 to 0.193002
Heightened Def Con from 0.193056 to 0.193056
Heightened Def Con from 0.193164 to 0.193164
Heightened Def Con from 0.193218 to 0.193218
Heightened Def Con from 0.193271 to 0.193271
Heightened Def Con from 0.193379 to 0.193379
Heightened Def Con from 0.193433 to 0.193433
Heightened Def Con from 0.193487 to 0.193487
Heightened Def Con from 0.193648 to 0.193648
Heightened Def Con from 0.193702 to 0.193702
Heightened Def Con from 0.193863 to 0.193863
Heightened Def Con from 0.193917 to 0.193917
Heightened Def Con from 0.193917 to 0.193917
Heightened Def Con from 0.19397 to 0.19397
Heightened Def Con from 0.194078 to 0.194078
Heightened Def Con from 0.194185 to 0.194185
Heightened Def Con from 0.194453 to 0.194453
Heightened Def Con from 0.194614 to 0.194614
Heightened Def Con from 0.194668 to 0.194668
Heightened Def Con from 0.194722 to 0.194722
Heightened Def Con from 0.194989 to 0.194989
Heightened Def Con from 0.195043 to 0.195043
Heightened Def Con from 0.195096 to 0.195096
Heightened Def Con from 0.195257 to 0.195257
Heightened Def Con from 0.195364 to 0.195364
Heightened Def Con from 0.195471 to 0.195471
Heightened Def Con from 0.195631 to 0.195631
Heightened Def Con from 0.195738 to 0.195738
Heightened Def Con from 0.195898 to 0.195898
Heightened Def Con from 0.196218 to 0.196218
Heightened Def Con from 0.196432 to 0.196432
Heightened Def Con from 0.196485 to 0.196485
Heightened Def Con from 0.196592 to 0.196592
Heightened Def Con from 0.196751 to 0.196751
Heightened Def Con from 0.197124 to 0.197124
Heightened Def Con from 0.197336 to 0.197336
Heightened Def Con from 0.197496 to 0.197496
Heightened Def Con from 0.197655 to 0.197655
Heightened Def Con from 0.197655 to 0.197655
Heightened Def Con from 0.197814 to 0.197814
Heightened Def Con from 0.19792 to 0.19792
Heightened Def Con from 0.198026 to 0.198026
Heightened Def Con from 0.198079 to 0.198079
Heightened Def Con from 0.198079 to 0.198079
Heightened Def Con from 0.198132 to 0.198132
Heightened Def Con from 0.198185 to 0.198185
Heightened Def Con from 0.198185 to 0.198185
Heightened Def Con from 0.198238 to 0.198238
Heightened Def Con from 0.198291 to 0.198291
Heightened Def Con from 0.198344 to 0.198344
Heightened Def Con from 0.198503 to 0.198503
Heightened Def Con from 0.198556 to 0.198556
Heightened Def Con from 0.198609 to 0.198609
Heightened Def Con from 0.198821 to 0.198821
Heightened Def Con from 0.198821 to 0.198821
Heightened Def Con from 0.198874 to 0.198874
Heightened Def Con from 0.198979 to 0.19898
Heightened Def Con from 0.199032 to 0.199032
Heightened Def Con from 0.199085 to 0.199085
Heightened Def Con from 0.199138 to 0.199138
Heightened Def Con from 0.199402 to 0.199402
Heightened Def Con from 0.199455 to 0.199455
Heightened Def Con from 0.19956 to 0.19956
Heightened Def Con from 0.199613 to 0.199613
Heightened Def Con from 0.199719 to 0.199719
Heightened Def Con from 0.199719 to 0.199719
Heightened Def Con from 0.199929 to 0.199929
Heightened Def Con from 0.199982 to 0.199982
Heightened Def Con from 0.200088 to 0.200088
Heightened Def Con from 0.20014 to 0.20014
Heightened Def Con from 0.200351 to 0.200351
Heightened Def Con from 0.200561 to 0.200561
Heightened Def Con from 0.200614 to 0.200614
Heightened Def Con from 0.200666 to 0.200666
Heightened Def Con from 0.200772 to 0.200772
Heightened Def Con from 0.200929 to 0.200929
Heightened Def Con from 0.200929 to 0.200929
Heightened Def Con from 0.200982 to 0.200982
Heightened Def Con from 0.201087 to 0.201087
Heightened Def Con from 0.201192 to 0.201192
Heightened Def Con from 0.201244 to 0.201244
Heightened Def Con from 0.201244 to 0.201244
Heightened Def Con from 0.201297 to 0.201297
Heightened Def Con from 0.201349 to 0.201349
Heightened Def Con from 0.201402 to 0.201402
Heightened Def Con from 0.201454 to 0.201454
Heightened Def Con from 0.201507 to 0.201507
Heightened Def Con from 0.202031 to 0.202031
Heightened Def Con from 0.202345 to 0.202345
Heightened Def Con from 0.202449 to 0.202449
Heightened Def Con from 0.202501 to 0.202501
Heightened Def Con from 0.202554 to 0.202554
Heightened Def Con from 0.202763 to 0.202763
Heightened Def Con from 0.202919 to 0.202919
Heightened Def Con from 0.203128 to 0.203128
Heightened Def Con from 0.203233 to 0.203233
Heightened Def Con from 0.203389 to 0.203389
Heightened Def Con from 0.203441 to 0.203441
Heightened Def Con from 0.203545 to 0.203545
Heightened Def Con from 0.203545 to 0.203545
Heightened Def Con from 0.203702 to 0.203702
Heightened Def Con from 0.203702 to 0.203702
Heightened Def Con from 0.203754 to 0.203754
Heightened Def Con from 0.203754 to 0.203754
Heightened Def Con from 0.203962 to 0.203962
Heightened Def Con from 0.204431 to 0.204431
Heightened Def Con from 0.204482 to 0.204482
Heightened Def Con from 0.204586 to 0.204586
Heightened Def Con from 0.204794 to 0.204794
Heightened Def Con from 0.204846 to 0.204846
Heightened Def Con from 0.205261 to 0.205261
Heightened Def Con from 0.205261 to 0.205261
Heightened Def Con from 0.205313 to 0.205313
Heightened Def Con from 0.205313 to 0.205313
Heightened Def Con from 0.205417 to 0.205417
Heightened Def Con from 0.20552 to 0.20552
Heightened Def Con from 0.205572 to 0.205572
Heightened Def Con from 0.205779 to 0.205779
Heightened Def Con from 0.205883 to 0.205883
Heightened Def Con from 0.205934 to 0.205934
Heightened Def Con from 0.205986 to 0.205986
Heightened Def Con from 0.206038 to 0.206038
Heightened Def Con from 0.206296 to 0.206296
Heightened Def Con from 0.206348 to 0.206348
Heightened Def Con from 0.2064 to 0.2064
Heightened Def Con from 0.206451 to 0.206451
Heightened Def Con from 0.206916 to 0.206916
Heightened Def Con from 0.206968 to 0.206968
Heightened Def Con from 0.207122 to 0.207122
Heightened Def Con from 0.20738 to 0.20738
Heightened Def Con from 0.207432 to 0.207432
Heightened Def Con from 0.207483 to 0.207483
Heightened Def Con from 0.207586 to 0.207586
Heightened Def Con from 0.207638 to 0.207638
Heightened Def Con from 0.20774 to 0.20774
Heightened Def Con from 0.208101 to 0.208101
Heightened Def Con from 0.208152 to 0.208152
Heightened Def Con from 0.20846 to 0.20846
Heightened Def Con from 0.208563 to 0.208563
Heightened Def Con from 0.208614 to 0.208614
Heightened Def Con from 0.208666 to 0.208666
Heightened Def Con from 0.20882 to 0.20882
Heightened Def Con from 0.208871 to 0.208871
Heightened Def Con from 0.209178 to 0.209178
Heightened Def Con from 0.20923 to 0.20923
Heightened Def Con from 0.209332 to 0.209332
Heightened Def Con from 0.209383 to 0.209383
Heightened Def Con from 0.209486 to 0.209486
Heightened Def Con from 0.209537 to 0.209537
Heightened Def Con from 0.209691 to 0.209691
Heightened Def Con from 0.209793 to 0.209793
Heightened Def Con from 0.209844 to 0.209844
Heightened Def Con from 0.209895 to 0.209895
Heightened Def Con from 0.2101 to 0.2101
Heightened Def Con from 0.210151 to 0.210151
Heightened Def Con from 0.210355 to 0.210355
Heightened Def Con from 0.210457 to 0.210457
Heightened Def Con from 0.210559 to 0.210559
Heightened Def Con from 0.21061 to 0.21061
Heightened Def Con from 0.210764 to 0.210764
Heightened Def Con from 0.21107 to 0.21107
Heightened Def Con from 0.211273 to 0.211273
Heightened Def Con from 0.211273 to 0.211273
Heightened Def Con from 0.211528 to 0.211528
Heightened Def Con from 0.21163 to 0.21163
Heightened Def Con from 0.21163 to 0.21163
Heightened Def Con from 0.211681 to 0.211681
Heightened Def Con from 0.211681 to 0.211681
Heightened Def Con from 0.211833 to 0.211833
Heightened Def Con from 0.212037 to 0.212037
Heightened Def Con from 0.212087 to 0.212087
Heightened Def Con from 0.212138 to 0.212138
Heightened Def Con from 0.212291 to 0.212291
Heightened Def Con from 0.212392 to 0.212392
Heightened Def Con from 0.212494 to 0.212494
Heightened Def Con from 0.212595 to 0.212595
Heightened Def Con from 0.212646 to 0.212646
Heightened Def Con from 0.212697 to 0.212697
Heightened Def Con from 0.212747 to 0.212747
Heightened Def Con from 0.2129 to 0.2129
Heightened Def Con from 0.2129 to 0.2129
Heightened Def Con from 0.213052 to 0.213052
Heightened Def Con from 0.213153 to 0.213153
Heightened Def Con from 0.213254 to 0.213254
Heightened Def Con from 0.213508 to 0.213508
Heightened Def Con from 0.213558 to 0.213558
Heightened Def Con from 0.213558 to 0.213558
Heightened Def Con from 0.213761 to 0.213761
Heightened Def Con from 0.214013 to 0.214013
Heightened Def Con from 0.214064 to 0.214064
Heightened Def Con from 0.214317 to 0.214317
Heightened Def Con from 0.214367 to 0.214367
Heightened Def Con from 0.214418 to 0.214418
Heightened Def Con from 0.214519 to 0.214519
Heightened Def Con from 0.214569 to 0.214569
Heightened Def Con from 0.214619 to 0.214619
Heightened Def Con from 0.214771 to 0.214771
Heightened Def Con from 0.214821 to 0.214821
Heightened Def Con from 0.214973 to 0.214973
Heightened Def Con from 0.215174 to 0.215174
Heightened Def Con from 0.215577 to 0.215577
Heightened Def Con from 0.215577 to 0.215577
Heightened Def Con from 0.215879 to 0.215879
Heightened Def Con from 0.215929 to 0.215929
Heightened Def Con from 0.21603 to 0.21603
Heightened Def Con from 0.21608 to 0.21608
Heightened Def Con from 0.216331 to 0.216331
Heightened Def Con from 0.216381 to 0.216381
Heightened Def Con from 0.216431 to 0.216431
Heightened Def Con from 0.216582 to 0.216582
Heightened Def Con from 0.216632 to 0.216632
Heightened Def Con from 0.216632 to 0.216632
Heightened Def Con from 0.216733 to 0.216733
Heightened Def Con from 0.216883 to 0.216883
Heightened Def Con from 0.216933 to 0.216933
Heightened Def Con from 0.216983 to 0.216983
Heightened Def Con from 0.217134 to 0.217134
Heightened Def Con from 0.217184 to 0.217184
Heightened Def Con from 0.217434 to 0.217434
Heightened Def Con from 0.217584 to 0.217584
Heightened Def Con from 0.217634 to 0.217634
Heightened Def Con from 0.217684 to 0.217684
Heightened Def Con from 0.217785 to 0.217785
Heightened Def Con from 0.217885 to 0.217885
Heightened Def Con from 0.217935 to 0.217935
Heightened Def Con from 0.217985 to 0.217985
Heightened Def Con from 0.218035 to 0.218035
Heightened Def Con from 0.218085 to 0.218085
Heightened Def Con from 0.218085 to 0.218085
Heightened Def Con from 0.218184 to 0.218184
Heightened Def Con from 0.218384 to 0.218384
Heightened Def Con from 0.218434 to 0.218434
Heightened Def Con from 0.218534 to 0.218534
Heightened Def Con from 0.218584 to 0.218584
Heightened Def Con from 0.218634 to 0.218634
Heightened Def Con from 0.218684 to 0.218684
Heightened Def Con from 0.218684 to 0.218684
Heightened Def Con from 0.218784 to 0.218784
Heightened Def Con from 0.218833 to 0.218833
Heightened Def Con from 0.218933 to 0.218933
Heightened Def Con from 0.219033 to 0.219033
Heightened Def Con from 0.219133 to 0.219133
Heightened Def Con from 0.219182 to 0.219182
Heightened Def Con from 0.219183 to 0.219183
Heightened Def Con from 0.219282 to 0.219282
Heightened Def Con from 0.219282 to 0.219282
Heightened Def Con from 0.219382 to 0.219382
Heightened Def Con from 0.219481 to 0.219481
Heightened Def Con from 0.219531 to 0.219531
Heightened Def Con from 0.21968 to 0.21968
Heightened Def Con from 0.21973 to 0.21973
Heightened Def Con from 0.21978 to 0.21978
Heightened Def Con from 0.219929 to 0.219929
Heightened Def Con from 0.219979 to 0.219979
Heightened Def Con from 0.219979 to 0.219979
Heightened Def Con from 0.220029 to 0.220029
Heightened Def Con from 0.220078 to 0.220078
Heightened Def Con from 0.220178 to 0.220178
Heightened Def Con from 0.220277 to 0.220277
Heightened Def Con from 0.220327 to 0.220327
Heightened Def Con from 0.220377 to 0.220377
Heightened Def Con from 0.220426 to 0.220426
Heightened Def Con from 0.220476 to 0.220476
Heightened Def Con from 0.220575 to 0.220575
Heightened Def Con from 0.220674 to 0.220674
Heightened Def Con from 0.220774 to 0.220774
Heightened Def Con from 0.220922 to 0.220922
Heightened Def Con from 0.221022 to 0.221022
Heightened Def Con from 0.221121 to 0.221121
Heightened Def Con from 0.22117 to 0.22117
Heightened Def Con from 0.221319 to 0.221319
Heightened Def Con from 0.221369 to 0.221369
Heightened Def Con from 0.221418 to 0.221418
Heightened Def Con from 0.221567 to 0.221567
Heightened Def Con from 0.221814 to 0.221814
Heightened Def Con from 0.221864 to 0.221864
Heightened Def Con from 0.222012 to 0.222012
Heightened Def Con from 0.222061 to 0.222061
Heightened Def Con from 0.222111 to 0.222111
Heightened Def Con from 0.22216 to 0.22216
Heightened Def Con from 0.22221 to 0.22221
Heightened Def Con from 0.22221 to 0.22221
Heightened Def Con from 0.222309 to 0.222309
Heightened Def Con from 0.222358 to 0.222358
Heightened Def Con from 0.222407 to 0.222407
Heightened Def Con from 0.222457 to 0.222457
Heightened Def Con from 0.222457 to 0.222457
Heightened Def Con from 0.222506 to 0.222506
Heightened Def Con from 0.222605 to 0.222605
Heightened Def Con from 0.222654 to 0.222654
Heightened Def Con from 0.222802 to 0.222802
Heightened Def Con from 0.222852 to 0.222852
Heightened Def Con from 0.222901 to 0.222901
Heightened Def Con from 0.22295 to 0.22295
Heightened Def Con from 0.223 to 0.223
Heightened Def Con from 0.223098 to 0.223098
Heightened Def Con from 0.223246 to 0.223246
Heightened Def Con from 0.223345 to 0.223345
Heightened Def Con from 0.223394 to 0.223394
Heightened Def Con from 0.223443 to 0.223443
Heightened Def Con from 0.223493 to 0.223493
Heightened Def Con from 0.22369 to 0.22369
Heightened Def Con from 0.223739 to 0.223739
Heightened Def Con from 0.223837 to 0.223837
Heightened Def Con from 0.223837 to 0.223837
Heightened Def Con from 0.223887 to 0.223887
Heightened Def Con from 0.223985 to 0.223985
Heightened Def Con from 0.224034 to 0.224034
Heightened Def Con from 0.224132 to 0.224132
Heightened Def Con from 0.224329 to 0.224329
Heightened Def Con from 0.224477 to 0.224477
Heightened Def Con from 0.224526 to 0.224526
Heightened Def Con from 0.224575 to 0.224575
Heightened Def Con from 0.224624 to 0.224624
Heightened Def Con from 0.224722 to 0.224722
Heightened Def Con from 0.224771 to 0.224771
Heightened Def Con from 0.224869 to 0.224869
Heightened Def Con from 0.224919 to 0.224919
Heightened Def Con from 0.224968 to 0.224968
Heightened Def Con from 0.225066 to 0.225066
Heightened Def Con from 0.225115 to 0.225115
Heightened Def Con from 0.225213 to 0.225213
Heightened Def Con from 0.225311 to 0.225311
Heightened Def Con from 0.22536 to 0.22536
Heightened Def Con from 0.225458 to 0.225458
Heightened Def Con from 0.225507 to 0.225507
Heightened Def Con from 0.225703 to 0.225703
Heightened Def Con from 0.225801 to 0.225801
Heightened Def Con from 0.22585 to 0.22585
Heightened Def Con from 0.225899 to 0.225899
Heightened Def Con from 0.225948 to 0.225948
Heightened Def Con from 0.225997 to 0.225997
Heightened Def Con from 0.226046 to 0.226046
Heightened Def Con from 0.226095 to 0.226095
Heightened Def Con from 0.226192 to 0.226192
Heightened Def Con from 0.226241 to 0.226241
Heightened Def Con from 0.226388 to 0.226388
Heightened Def Con from 0.226437 to 0.226437
Heightened Def Con from 0.226535 to 0.226535
Heightened Def Con from 0.22673 to 0.22673
Heightened Def Con from 0.226828 to 0.226828
Heightened Def Con from 0.226877 to 0.226877
Heightened Def Con from 0.226926 to 0.226926
Heightened Def Con from 0.226926 to 0.226926
Heightened Def Con from 0.226975 to 0.226975
Heightened Def Con from 0.227023 to 0.227023
Heightened Def Con from 0.227121 to 0.227121
Heightened Def Con from 0.227267 to 0.227267
Heightened Def Con from 0.227316 to 0.227316
Heightened Def Con from 0.227365 to 0.227365
Heightened Def Con from 0.227511 to 0.227511
Heightened Def Con from 0.22756 to 0.22756
Heightened Def Con from 0.22756 to 0.22756
Heightened Def Con from 0.227609 to 0.227609
Heightened Def Con from 0.227657 to 0.227657
Heightened Def Con from 0.227755 to 0.227755
Heightened Def Con from 0.227804 to 0.227804
Heightened Def Con from 0.227852 to 0.227852
Heightened Def Con from 0.228047 to 0.228047
Heightened Def Con from 0.228096 to 0.228096
Heightened Def Con from 0.228144 to 0.228144
Heightened Def Con from 0.228193 to 0.228193
Heightened Def Con from 0.22829 to 0.22829
Heightened Def Con from 0.228388 to 0.228388
Heightened Def Con from 0.228485 to 0.228485
Heightened Def Con from 0.228534 to 0.228534
Heightened Def Con from 0.228582 to 0.228582
Heightened Def Con from 0.228631 to 0.228631
Heightened Def Con from 0.22868 to 0.22868
Heightened Def Con from 0.228777 to 0.228777
Heightened Def Con from 0.228922 to 0.228922
Heightened Def Con from 0.228971 to 0.228971
Heightened Def Con from 0.22902 to 0.22902
Heightened Def Con from 0.229068 to 0.229068
Heightened Def Con from 0.229117 to 0.229117
Heightened Def Con from 0.229165 to 0.229165
Heightened Def Con from 0.229214 to 0.229214
Heightened Def Con from 0.229359 to 0.229359
Heightened Def Con from 0.229456 to 0.229456
Heightened Def Con from 0.229505 to 0.229505
Heightened Def Con from 0.229602 to 0.229602
Heightened Def Con from 0.22965 to 0.22965
Heightened Def Con from 0.229747 to 0.229747
Heightened Def Con from 0.229844 to 0.229844
Heightened Def Con from 0.229941 to 0.229941
Heightened Def Con from 0.22999 to 0.22999
Heightened Def Con from 0.230038 to 0.230038
Heightened Def Con from 0.230087 to 0.230087
Heightened Def Con from 0.230183 to 0.230183
Heightened Def Con from 0.230232 to 0.230232
Heightened Def Con from 0.23028 to 0.23028
Heightened Def Con from 0.230329 to 0.230329
Heightened Def Con from 0.230377 to 0.230377
Heightened Def Con from 0.230377 to 0.230377
Heightened Def Con from 0.230425 to 0.230425
Heightened Def Con from 0.230474 to 0.230474
Heightened Def Con from 0.230764 to 0.230764
Heightened Def Con from 0.230812 to 0.230812
Heightened Def Con from 0.230861 to 0.230861
Heightened Def Con from 0.231006 to 0.231006
Heightened Def Con from 0.231054 to 0.231054
Heightened Def Con from 0.231054 to 0.231054
Heightened Def Con from 0.231151 to 0.231151
Heightened Def Con from 0.231199 to 0.231199
Heightened Def Con from 0.231247 to 0.231247
Heightened Def Con from 0.231344 to 0.231344
Heightened Def Con from 0.23144 to 0.23144
Heightened Def Con from 0.231682 to 0.231682
Heightened Def Con from 0.23173 to 0.23173
Heightened Def Con from 0.231875 to 0.231875
Heightened Def Con from 0.231875 to 0.231875
Heightened Def Con from 0.231971 to 0.231971
Heightened Def Con from 0.232116 to 0.232116
Heightened Def Con from 0.232164 to 0.232164
Heightened Def Con from 0.23226 to 0.23226
Heightened Def Con from 0.232357 to 0.232357
Heightened Def Con from 0.232405 to 0.232405
Heightened Def Con from 0.232453 to 0.232453
Heightened Def Con from 0.232549 to 0.232549
Heightened Def Con from 0.232597 to 0.232597
Heightened Def Con from 0.232694 to 0.232694
Heightened Def Con from 0.232742 to 0.232742
Heightened Def Con from 0.232886 to 0.232886
Heightened Def Con from 0.232886 to 0.232886
Heightened Def Con from 0.232934 to 0.232934
Heightened Def Con from 0.232982 to 0.232982
Heightened Def Con from 0.232982 to 0.232982
Heightened Def Con from 0.23303 to 0.23303
Heightened Def Con from 0.233175 to 0.233175
Heightened Def Con from 0.233271 to 0.233271
Heightened Def Con from 0.233415 to 0.233415
Heightened Def Con from 0.233463 to 0.233463
Heightened Def Con from 0.233559 to 0.233559
Heightened Def Con from 0.233607 to 0.233607
Heightened Def Con from 0.233655 to 0.233655
Heightened Def Con from 0.233703 to 0.233703
Heightened Def Con from 0.233799 to 0.233799
Heightened Def Con from 0.233847 to 0.233847
Heightened Def Con from 0.233943 to 0.233943
Heightened Def Con from 0.233991 to 0.233991
Heightened Def Con from 0.234039 to 0.234039
Heightened Def Con from 0.234278 to 0.234278
Heightened Def Con from 0.234422 to 0.234422
Heightened Def Con from 0.23447 to 0.23447
Heightened Def Con from 0.234566 to 0.234566
Heightened Def Con from 0.234614 to 0.234614
Heightened Def Con from 0.234758 to 0.234758
Heightened Def Con from 0.234758 to 0.234758
Heightened Def Con from 0.234853 to 0.234853
Heightened Def Con from 0.234949 to 0.234949
Heightened Def Con from 0.234997 to 0.234997
Heightened Def Con from 0.235045 to 0.235045
Heightened Def Con from 0.235093 to 0.235093
Heightened Def Con from 0.23514 to 0.23514
Heightened Def Con from 0.235188 to 0.235188
Heightened Def Con from 0.235236 to 0.235236
Heightened Def Con from 0.235332 to 0.235332
Heightened Def Con from 0.235475 to 0.235475
Heightened Def Con from 0.235523 to 0.235523
Heightened Def Con from 0.235666 to 0.235666
Heightened Def Con from 0.235714 to 0.235714
Heightened Def Con from 0.235762 to 0.235762
Heightened Def Con from 0.235762 to 0.235762
Heightened Def Con from 0.23581 to 0.23581
Heightened Def Con from 0.235857 to 0.235857
Heightened Def Con from 0.235905 to 0.235905
Heightened Def Con from 0.235953 to 0.235953
Heightened Def Con from 0.236048 to 0.236048
Heightened Def Con from 0.236096 to 0.236096
Heightened Def Con from 0.236144 to 0.236144
Heightened Def Con from 0.236191 to 0.236191
Heightened Def Con from 0.236239 to 0.236239
Heightened Def Con from 0.236287 to 0.236287
Heightened Def Con from 0.23643 to 0.23643
Heightened Def Con from 0.236573 to 0.236573
Heightened Def Con from 0.236716 to 0.236716
Heightened Def Con from 0.236764 to 0.236764
Heightened Def Con from 0.236811 to 0.236811
Heightened Def Con from 0.236859 to 0.236859
Heightened Def Con from 0.236907 to 0.236907
Heightened Def Con from 0.236954 to 0.236954
Heightened Def Con from 0.237049 to 0.237049
Heightened Def Con from 0.237097 to 0.237097
Heightened Def Con from 0.237145 to 0.237145
Heightened Def Con from 0.237287 to 0.237287
Heightened Def Con from 0.237335 to 0.237335
Heightened Def Con from 0.237383 to 0.237383
Heightened Def Con from 0.23743 to 0.23743
Heightened Def Con from 0.23743 to 0.23743
Heightened Def Con from 0.237478 to 0.237478
Heightened Def Con from 0.237525 to 0.237525
Heightened Def Con from 0.23762 to 0.23762
Heightened Def Con from 0.237668 to 0.237668
Heightened Def Con from 0.237668 to 0.237668
Heightened Def Con from 0.237715 to 0.237715
Heightened Def Con from 0.237811 to 0.237811
Heightened Def Con from 0.237906 to 0.237906
Heightened Def Con from 0.237953 to 0.237953
Heightened Def Con from 0.238048 to 0.238048
Heightened Def Con from 0.238048 to 0.238048
Heightened Def Con from 0.238143 to 0.238143
Heightened Def Con from 0.238191 to 0.238191
Heightened Def Con from 0.238238 to 0.238238
Heightened Def Con from 0.238286 to 0.238286
Heightened Def Con from 0.238333 to 0.238333
Heightened Def Con from 0.238381 to 0.238381
Heightened Def Con from 0.238428 to 0.238428
Heightened Def Con from 0.238523 to 0.238523
Heightened Def Con from 0.238665 to 0.238665
Heightened Def Con from 0.238713 to 0.238713
Heightened Def Con from 0.23876 to 0.23876
Heightened Def Con from 0.238808 to 0.238808
Heightened Def Con from 0.238808 to 0.238808
Heightened Def Con from 0.238855 to 0.238855
Heightened Def Con from 0.238997 to 0.238997
Heightened Def Con from 0.239045 to 0.239045
Heightened Def Con from 0.239092 to 0.239092
Heightened Def Con from 0.239092 to 0.239092
Heightened Def Con from 0.239139 to 0.239139
Heightened Def Con from 0.239234 to 0.239234
Heightened Def Con from 0.239329 to 0.239329
Heightened Def Con from 0.239471 to 0.239471
Heightened Def Con from 0.23966 to 0.23966
Heightened Def Con from 0.239707 to 0.239707
Heightened Def Con from 0.239707 to 0.239707
Heightened Def Con from 0.239755 to 0.239755
Heightened Def Con from 0.239755 to 0.239755
Heightened Def Con from 0.239802 to 0.239802
Heightened Def Con from 0.239849 to 0.239849
Heightened Def Con from 0.239849 to 0.239849
Heightened Def Con from 0.239897 to 0.239897
Heightened Def Con from 0.240086 to 0.240086
Heightened Def Con from 0.240133 to 0.240133
Heightened Def Con from 0.240133 to 0.240133
Heightened Def Con from 0.240228 to 0.240228
Heightened Def Con from 0.240275 to 0.240275
Heightened Def Con from 0.240417 to 0.240417
Heightened Def Con from 0.240464 to 0.240464
Heightened Def Con from 0.240558 to 0.240558
Heightened Def Con from 0.240605 to 0.240605
Heightened Def Con from 0.240653 to 0.240653
Heightened Def Con from 0.2407 to 0.2407
Heightened Def Con from 0.240747 to 0.240747
Heightened Def Con from 0.240794 to 0.240794
Heightened Def Con from 0.240889 to 0.240889
Heightened Def Con from 0.240936 to 0.240936
Heightened Def Con from 0.240983 to 0.240983
Heightened Def Con from 0.24103 to 0.24103
Heightened Def Con from 0.241077 to 0.241077
Heightened Def Con from 0.241125 to 0.241125
Heightened Def Con from 0.241219 to 0.241219
Heightened Def Con from 0.241313 to 0.241313
Heightened Def Con from 0.241454 to 0.241454
Heightened Def Con from 0.241502 to 0.241502
Heightened Def Con from 0.241549 to 0.241549
Heightened Def Con from 0.241596 to 0.241596
Heightened Def Con from 0.241643 to 0.241643
Heightened Def Con from 0.241643 to 0.241643
Heightened Def Con from 0.24169 to 0.24169
Heightened Def Con from 0.241737 to 0.241737
Heightened Def Con from 0.241784 to 0.241784
Heightened Def Con from 0.241784 to 0.241784
Heightened Def Con from 0.241878 to 0.241878
Heightened Def Con from 0.241925 to 0.241925
Heightened Def Con from 0.241972 to 0.241972
Heightened Def Con from 0.24202 to 0.24202
Heightened Def Con from 0.24202 to 0.24202
Heightened Def Con from 0.242114 to 0.242114
Heightened Def Con from 0.242161 to 0.242161
Heightened Def Con from 0.242208 to 0.242208
Heightened Def Con from 0.242255 to 0.242255
Heightened Def Con from 0.242302 to 0.242302
Heightened Def Con from 0.242349 to 0.242349
Heightened Def Con from 0.242396 to 0.242396
Heightened Def Con from 0.242443 to 0.242443
Heightened Def Con from 0.24249 to 0.24249
Heightened Def Con from 0.242584 to 0.242584
Heightened Def Con from 0.242584 to 0.242584
Heightened Def Con from 0.242631 to 0.242631
Heightened Def Con from 0.242631 to 0.242631
Heightened Def Con from 0.242678 to 0.242678
Heightened Def Con from 0.242772 to 0.242772
Heightened Def Con from 0.242866 to 0.242866
Heightened Def Con from 0.242913 to 0.242913
Heightened Def Con from 0.24296 to 0.24296
Heightened Def Con from 0.243007 to 0.243007
Heightened Def Con from 0.243054 to 0.243054
Heightened Def Con from 0.243101 to 0.243101
Heightened Def Con from 0.243101 to 0.243101
Heightened Def Con from 0.243241 to 0.243241
Heightened Def Con from 0.243241 to 0.243241
Heightened Def Con from 0.243288 to 0.243288
Heightened Def Con from 0.243335 to 0.243335
Heightened Def Con from 0.243335 to 0.243335
Heightened Def Con from 0.243382 to 0.243382
Heightened Def Con from 0.243429 to 0.243429
Heightened Def Con from 0.24357 to 0.24357
Heightened Def Con from 0.243664 to 0.243664
Heightened Def Con from 0.243804 to 0.243804
Heightened Def Con from 0.243898 to 0.243898
Heightened Def Con from 0.243898 to 0.243898
Heightened Def Con from 0.243992 to 0.243992
Heightened Def Con from 0.244085 to 0.244085
Heightened Def Con from 0.244085 to 0.244085
Heightened Def Con from 0.244132 to 0.244132
Heightened Def Con from 0.244132 to 0.244132
Heightened Def Con from 0.244179 to 0.244179
Heightened Def Con from 0.244273 to 0.244273
Heightened Def Con from 0.244366 to 0.244366
Heightened Def Con from 0.24446 to 0.24446
Heightened Def Con from 0.24446 to 0.24446
Heightened Def Con from 0.244507 to 0.244507
Heightened Def Con from 0.244647 to 0.244647
Heightened Def Con from 0.244647 to 0.244647
Heightened Def Con from 0.244694 to 0.244694
Heightened Def Con from 0.244741 to 0.244741
Heightened Def Con from 0.244741 to 0.244741
Heightened Def Con from 0.244787 to 0.244787
Heightened Def Con from 0.244881 to 0.244881
Heightened Def Con from 0.244928 to 0.244928
Heightened Def Con from 0.244928 to 0.244928
Heightened Def Con from 0.245115 to 0.245115
Heightened Def Con from 0.245115 to 0.245115
Heightened Def Con from 0.245208 to 0.245208
Heightened Def Con from 0.245255 to 0.245255
Heightened Def Con from 0.245302 to 0.245302
Heightened Def Con from 0.245348 to 0.245348
Heightened Def Con from 0.245395 to 0.245395
Heightened Def Con from 0.245442 to 0.245442
Heightened Def Con from 0.245442 to 0.245442
Heightened Def Con from 0.245488 to 0.245488
Heightened Def Con from 0.245535 to 0.245535
Heightened Def Con from 0.245535 to 0.245535
Heightened Def Con from 0.245582 to 0.245582
Heightened Def Con from 0.245628 to 0.245628
Heightened Def Con from 0.245675 to 0.245675
Heightened Def Con from 0.245722 to 0.245722
[...]
Heightened Def Con from 5.54963 to 5.54963
Heightened Def Con from 5.54975 to 5.54975
Heightened Def Con from 5.55019 to 5.55019
Heightened Def Con from 5.55034 to 5.55034
Heightened Def Con from 5.55042 to 5.55042
Heightened Def Con from 5.55105 to 5.55105
Heightened Def Con from 5.55117 to 5.55117
Heightened Def Con from 5.5518 to 5.5518
Heightened Def Con from 5.55213 to 5.55213
Heightened Def Con from 5.55228 to 5.55228
Heightened Def Con from 5.55239 to 5.55239
Heightened Def Con from 5.55245 to 5.55245
Heightened Def Con from 5.55261 to 5.55261
Heightened Def Con from 5.55274 to 5.55274
Heightened Def Con from 5.5528 to 5.5528
Heightened Def Con from 5.55322 to 5.55322
Heightened Def Con from 5.55337 to 5.55337
Heightened Def Con from 5.55358 to 5.55358
Heightened Def Con from 5.55412 to 5.55412
Heightened Def Con from 5.55422 to 5.55422
Heightened Def Con from 5.5547 to 5.5547
Heightened Def Con from 5.55485 to 5.55485
Heightened Def Con from 5.55606 to 5.55606
Heightened Def Con from 5.55612 to 5.55612
Heightened Def Con from 5.55615 to 5.55615
Heightened Def Con from 5.55623 to 5.55623
Heightened Def Con from 5.55627 to 5.55627
Heightened Def Con from 5.55665 to 5.55665
Heightened Def Con from 5.55681 to 5.55681
Heightened Def Con from 5.55727 to 5.55727
Heightened Def Con from 5.55786 to 5.55786
Heightened Def Con from 5.55798 to 5.55798
Heightened Def Con from 5.55838 to 5.55838
Heightened Def Con from 5.55855 to 5.55855
Heightened Def Con from 5.55861 to 5.55861
Heightened Def Con from 5.55871 to 5.55871
Heightened Def Con from 5.5589 to 5.5589
Heightened Def Con from 5.55936 to 5.55936
Heightened Def Con from 5.5597 to 5.5597
Heightened Def Con from 5.55974 to 5.55974
Heightened Def Con from 5.5608 to 5.5608
Heightened Def Con from 5.56145 to 5.56145
Heightened Def Con from 5.56204 to 5.56204
Heightened Def Con from 5.56239 to 5.56239
Heightened Def Con from 5.56241 to 5.56241
Heightened Def Con from 5.56318 to 5.56318
Heightened Def Con from 5.56337 to 5.56337
Heightened Def Con from 5.56343 to 5.56343
Heightened Def Con from 5.56373 to 5.56373
Heightened Def Con from 5.56398 to 5.56398
Heightened Def Con from 5.56414 to 5.56414
Heightened Def Con from 5.56417 to 5.56417
Heightened Def Con from 5.56429 to 5.56429
Heightened Def Con from 5.56433 to 5.56433
Heightened Def Con from 5.56446 to 5.56446
Heightened Def Con from 5.5645 to 5.5645
Heightened Def Con from 5.56456 to 5.56456
Heightened Def Con from 5.56563 to 5.56563
Heightened Def Con from 5.56638 to 5.56638
Heightened Def Con from 5.56684 to 5.56684
Heightened Def Con from 5.56734 to 5.56734
Heightened Def Con from 5.56749 to 5.56749
Heightened Def Con from 5.56755 to 5.56755
Heightened Def Con from 5.56809 to 5.56809
Heightened Def Con from 5.56828 to 5.56828
Heightened Def Con from 5.56832 to 5.56832
Heightened Def Con from 5.5687 to 5.5687
Heightened Def Con from 5.56899 to 5.56899
Heightened Def Con from 5.56935 to 5.56935
Heightened Def Con from 5.57024 to 5.57024
Heightened Def Con from 5.57041 to 5.57041
Heightened Def Con from 5.57156 to 5.57156
Heightened Def Con from 5.57189 to 5.57189
Heightened Def Con from 5.57196 to 5.57196
Heightened Def Con from 5.57281 to 5.57281
Heightened Def Con from 5.57292 to 5.57292
Heightened Def Con from 5.57306 to 5.57306
Heightened Def Con from 5.57373 to 5.57373
Heightened Def Con from 5.57381 to 5.57381
Heightened Def Con from 5.57406 to 5.57406
Heightened Def Con from 5.57411 to 5.57411
Heightened Def Con from 5.57417 to 5.57417
Heightened Def Con from 5.57482 to 5.57482
Heightened Def Con from 5.57488 to 5.57488
Heightened Def Con from 5.57563 to 5.57563
Heightened Def Con from 5.57592 to 5.57592
Heightened Def Con from 5.57601 to 5.57601
Heightened Def Con from 5.57663 to 5.57663
Heightened Def Con from 5.57705 to 5.57705
Heightened Def Con from 5.57847 to 5.57847
Heightened Def Con from 5.57849 to 5.57849
Heightened Def Con from 5.5787 to 5.5787
Heightened Def Con from 5.57954 to 5.57954
Heightened Def Con from 5.58045 to 5.58045
Heightened Def Con from 5.5815 to 5.5815
Heightened Def Con from 5.58158 to 5.58158
Heightened Def Con from 5.58223 to 5.58223
Heightened Def Con from 5.5824 to 5.5824
Heightened Def Con from 5.58246 to 5.58246
Heightened Def Con from 5.58265 to 5.58265
Heightened Def Con from 5.58277 to 5.58277
Heightened Def Con from 5.58323 to 5.58323
Heightened Def Con from 5.58342 to 5.58342
Heightened Def Con from 5.58346 to 5.58346
Heightened Def Con from 5.5835 to 5.5835
Heightened Def Con from 5.58365 to 5.58365
Heightened Def Con from 5.58394 to 5.58394
Heightened Def Con from 5.58396 to 5.58396
Heightened Def Con from 5.5843 to 5.5843
Heightened Def Con from 5.58453 to 5.58453
Heightened Def Con from 5.58488 to 5.58488
Heightened Def Con from 5.5849 to 5.5849
Heightened Def Con from 5.58595 to 5.58595
Heightened Def Con from 5.58611 to 5.58611
Heightened Def Con from 5.58626 to 5.58626
Heightened Def Con from 5.58632 to 5.58632
Heightened Def Con from 5.58638 to 5.58638
Heightened Def Con from 5.58645 to 5.58645
Heightened Def Con from 5.58647 to 5.58647
Heightened Def Con from 5.58655 to 5.58655
Heightened Def Con from 5.5867 to 5.5867
Heightened Def Con from 5.58699 to 5.58699
Heightened Def Con from 5.5876 to 5.5876
Heightened Def Con from 5.58782 to 5.58782
Heightened Def Con from 5.58797 to 5.58797
Heightened Def Con from 5.58818 to 5.58818
Heightened Def Con from 5.58822 to 5.58822
Heightened Def Con from 5.5883 to 5.5883
Heightened Def Con from 5.58864 to 5.58864
Heightened Def Con from 5.58889 to 5.58889
Heightened Def Con from 5.58891 to 5.58891
Heightened Def Con from 5.58924 to 5.58924
Heightened Def Con from 5.58935 to 5.58935
Heightened Def Con from 5.58945 to 5.58945
Heightened Def Con from 5.58977 to 5.58977
Heightened Def Con from 5.58989 to 5.58989
Heightened Def Con from 5.59054 to 5.59054
Heightened Def Con from 5.59094 to 5.59094
Heightened Def Con from 5.59129 to 5.59129
Heightened Def Con from 5.59175 to 5.59175
Heightened Def Con from 5.59236 to 5.59236
Heightened Def Con from 5.59242 to 5.59242
Heightened Def Con from 5.59273 to 5.59273
Heightened Def Con from 5.59298 to 5.59298
Heightened Def Con from 5.59302 to 5.59302
Heightened Def Con from 5.59348 to 5.59348
Heightened Def Con from 5.59407 to 5.59407
Heightened Def Con from 5.59434 to 5.59434
Heightened Def Con from 5.59457 to 5.59457
Heightened Def Con from 5.5949 to 5.5949
Heightened Def Con from 5.59557 to 5.59557
Heightened Def Con from 5.59605 to 5.59605
Heightened Def Con from 5.59695 to 5.59695
Heightened Def Con from 5.59732 to 5.59732
Heightened Def Con from 5.59789 to 5.59789
Heightened Def Con from 5.59805 to 5.59805
Heightened Def Con from 5.59833 to 5.59833
Heightened Def Con from 5.59853 to 5.59853
Heightened Def Con from 5.59856 to 5.59856
Heightened Def Con from 5.59885 to 5.59885
Heightened Def Con from 5.59899 to 5.59899
Heightened Def Con from 5.5992 to 5.5992
Heightened Def Con from 5.59933 to 5.59933
Heightened Def Con from 5.59935 to 5.59935
Heightened Def Con from 5.59956 to 5.59956
Heightened Def Con from 5.59993 to 5.59993
Heightened Def Con from 5.6 to 5.6
Heightened Def Con from 5.60004 to 5.60004
Heightened Def Con from 5.60058 to 5.60058
Heightened Def Con from 5.60077 to 5.60077
Heightened Def Con from 5.60116 to 5.60116
Heightened Def Con from 5.60131 to 5.60131
Heightened Def Con from 5.60212 to 5.60212
Heightened Def Con from 5.60346 to 5.60346
Heightened Def Con from 5.60359 to 5.60359
Heightened Def Con from 5.60417 to 5.60417
Heightened Def Con from 5.6045 to 5.6045
Heightened Def Con from 5.60457 to 5.60457
Heightened Def Con from 5.6049 to 5.6049
Heightened Def Con from 5.605 to 5.605
Heightened Def Con from 5.60617 to 5.60617
Heightened Def Con from 5.6064 to 5.6064
Heightened Def Con from 5.60645 to 5.60645
Heightened Def Con from 5.60649 to 5.60649
Heightened Def Con from 5.60676 to 5.60676
Heightened Def Con from 5.60686 to 5.60686
Heightened Def Con from 5.60715 to 5.60715
Heightened Def Con from 5.60763 to 5.60763
Heightened Def Con from 5.60784 to 5.60784
Heightened Def Con from 5.60786 to 5.60786
Heightened Def Con from 5.60826 to 5.60826
Heightened Def Con from 5.60855 to 5.60855
Heightened Def Con from 5.60857 to 5.60857
Heightened Def Con from 5.60868 to 5.60868
Heightened Def Con from 5.60876 to 5.60876
Heightened Def Con from 5.6088 to 5.6088
Heightened Def Con from 5.60893 to 5.60893
Heightened Def Con from 5.60933 to 5.60933
Heightened Def Con from 5.60978 to 5.60978
Heightened Def Con from 5.60989 to 5.60989
Heightened Def Con from 5.61045 to 5.61045
Heightened Def Con from 5.61052 to 5.61052
Heightened Def Con from 5.61143 to 5.61143
Heightened Def Con from 5.61185 to 5.61185
Heightened Def Con from 5.61204 to 5.61204
Heightened Def Con from 5.61246 to 5.61246
Heightened Def Con from 5.61266 to 5.61266
Heightened Def Con from 5.61287 to 5.61287
Heightened Def Con from 5.61325 to 5.61325
Heightened Def Con from 5.61346 to 5.61346
Heightened Def Con from 5.61362 to 5.61362
Heightened Def Con from 5.61373 to 5.61373
Heightened Def Con from 5.61379 to 5.61379
Heightened Def Con from 5.61502 to 5.61502
Heightened Def Con from 5.6155 to 5.6155
Heightened Def Con from 5.61598 to 5.61598
Heightened Def Con from 5.61776 to 5.61776
Heightened Def Con from 5.61801 to 5.61801
Heightened Def Con from 5.61817 to 5.61817
Heightened Def Con from 5.61884 to 5.61884
Heightened Def Con from 5.61953 to 5.61953
Heightened Def Con from 5.61974 to 5.61974
Heightened Def Con from 5.62011 to 5.62011
Heightened Def Con from 5.62037 to 5.62037
Heightened Def Con from 5.62043 to 5.62043
Heightened Def Con from 5.62055 to 5.62055
Heightened Def Con from 5.62074 to 5.62074
Heightened Def Con from 5.6208 to 5.6208
Heightened Def Con from 5.62095 to 5.62095
Heightened Def Con from 5.62107 to 5.62107
Heightened Def Con from 5.62114 to 5.62114
Heightened Def Con from 5.6216 to 5.6216
Heightened Def Con from 5.62195 to 5.62195
Heightened Def Con from 5.62203 to 5.62203
Heightened Def Con from 5.62228 to 5.62228
Heightened Def Con from 5.62251 to 5.62251
Heightened Def Con from 5.6226 to 5.6226
Heightened Def Con from 5.62289 to 5.62289
Heightened Def Con from 5.62308 to 5.62308
Heightened Def Con from 5.62327 to 5.62327
Heightened Def Con from 5.62341 to 5.62341
Heightened Def Con from 5.62354 to 5.62354
Heightened Def Con from 5.62358 to 5.62358
Heightened Def Con from 5.62448 to 5.62448
Heightened Def Con from 5.62464 to 5.62464
Heightened Def Con from 5.62481 to 5.62481
Heightened Def Con from 5.62506 to 5.62506
Heightened Def Con from 5.62516 to 5.62516
Heightened Def Con from 5.62527 to 5.62527
Heightened Def Con from 5.62564 to 5.62564
Heightened Def Con from 5.62581 to 5.62581
Heightened Def Con from 5.62617 to 5.62617
Heightened Def Con from 5.62619 to 5.62619
Heightened Def Con from 5.62631 to 5.62631
Heightened Def Con from 5.62706 to 5.62706
Heightened Def Con from 5.62769 to 5.62769
Heightened Def Con from 5.62784 to 5.62784
Heightened Def Con from 5.62802 to 5.62802
Heightened Def Con from 5.62821 to 5.62821
Heightened Def Con from 5.62836 to 5.62836
Heightened Def Con from 5.62928 to 5.62928
Heightened Def Con from 5.62973 to 5.62973
Heightened Def Con from 5.62975 to 5.62975
Heightened Def Con from 5.62978 to 5.62978
Heightened Def Con from 5.62984 to 5.62984
Heightened Def Con from 5.62988 to 5.62988
Heightened Def Con from 5.63021 to 5.63021
Heightened Def Con from 5.63023 to 5.63023
Heightened Def Con from 5.63046 to 5.63046
Heightened Def Con from 5.63099 to 5.63099
Heightened Def Con from 5.63101 to 5.63101
Heightened Def Con from 5.63111 to 5.63111
Heightened Def Con from 5.63113 to 5.63113
Heightened Def Con from 5.6324 to 5.6324
Heightened Def Con from 5.63282 to 5.63282
Heightened Def Con from 5.63299 to 5.63299
Heightened Def Con from 5.63313 to 5.63313
Heightened Def Con from 5.63359 to 5.63359
Heightened Def Con from 5.63387 to 5.63387
Heightened Def Con from 5.63397 to 5.63397
Heightened Def Con from 5.63437 to 5.63437
Heightened Def Con from 5.63441 to 5.63441
Heightened Def Con from 5.63445 to 5.63445
Heightened Def Con from 5.63455 to 5.63455
Heightened Def Con from 5.63472 to 5.63472
Heightened Def Con from 5.63495 to 5.63495
Heightened Def Con from 5.63497 to 5.63497
Heightened Def Con from 5.63499 to 5.63499
Heightened Def Con from 5.63508 to 5.63508
Heightened Def Con from 5.63514 to 5.63514
Heightened Def Con from 5.63518 to 5.63518
Heightened Def Con from 5.6352 to 5.6352
Heightened Def Con from 5.63533 to 5.63533
Heightened Def Con from 5.63568 to 5.63568
Heightened Def Con from 5.63626 to 5.63626
Heightened Def Con from 5.63697 to 5.63697
Heightened Def Con from 5.63724 to 5.63724
Heightened Def Con from 5.63737 to 5.63737
Heightened Def Con from 5.63795 to 5.63795
Heightened Def Con from 5.63804 to 5.63804
Heightened Def Con from 5.63854 to 5.63854
Heightened Def Con from 5.63856 to 5.63856
Heightened Def Con from 5.63879 to 5.63879
Heightened Def Con from 5.64044 to 5.64044
Heightened Def Con from 5.64148 to 5.64148
Heightened Def Con from 5.64181 to 5.64181
Heightened Def Con from 5.64227 to 5.64227
Heightened Def Con from 5.64254 to 5.64254
Heightened Def Con from 5.6434 to 5.6434
Heightened Def Con from 5.64359 to 5.64359
Heightened Def Con from 5.64367 to 5.64367
Heightened Def Con from 5.6439 to 5.6439
Heightened Def Con from 5.64465 to 5.64465
Heightened Def Con from 5.6448 to 5.6448
Heightened Def Con from 5.64613 to 5.64613
Heightened Def Con from 5.64682 to 5.64682
Heightened Def Con from 5.64705 to 5.64705
Heightened Def Con from 5.64742 to 5.64742
Heightened Def Con from 5.64745 to 5.64745
Heightened Def Con from 5.64759 to 5.64759
Heightened Def Con from 5.6479 to 5.6479
Heightened Def Con from 5.64801 to 5.64801
Heightened Def Con from 5.64809 to 5.64809
Heightened Def Con from 5.64834 to 5.64834
Heightened Def Con from 5.64878 to 5.64878
Heightened Def Con from 5.64903 to 5.64903
Heightened Def Con from 5.64972 to 5.64972
Heightened Def Con from 5.65009 to 5.65009
Heightened Def Con from 5.65026 to 5.65026
Heightened Def Con from 5.65074 to 5.65074
Heightened Def Con from 5.65141 to 5.65141
Heightened Def Con from 5.65162 to 5.65162
Heightened Def Con from 5.65193 to 5.65193
Heightened Def Con from 5.65245 to 5.65245
Heightened Def Con from 5.65285 to 5.65285
Heightened Def Con from 5.65291 to 5.65291
Heightened Def Con from 5.65329 to 5.65329
Heightened Def Con from 5.65337 to 5.65337
Heightened Def Con from 5.65343 to 5.65343
Heightened Def Con from 5.65345 to 5.65345
Heightened Def Con from 5.6537 to 5.6537
Heightened Def Con from 5.65412 to 5.65412
Heightened Def Con from 5.65418 to 5.65418
Heightened Def Con from 5.65433 to 5.65433
Heightened Def Con from 5.65466 to 5.65466
Heightened Def Con from 5.65489 to 5.65489
Heightened Def Con from 5.65495 to 5.65495
Heightened Def Con from 5.65554 to 5.65554
Heightened Def Con from 5.65621 to 5.65621
Heightened Def Con from 5.65708 to 5.65708
Heightened Def Con from 5.65714 to 5.65714
Heightened Def Con from 5.65735 to 5.65735
Heightened Def Con from 5.65767 to 5.65767
Heightened Def Con from 5.65769 to 5.65769
Heightened Def Con from 5.65783 to 5.65783
Heightened Def Con from 5.65796 to 5.65796
Heightened Def Con from 5.65802 to 5.65802
Heightened Def Con from 5.65825 to 5.65825
Heightened Def Con from 5.65854 to 5.65854
Heightened Def Con from 5.65873 to 5.65873
Heightened Def Con from 5.65915 to 5.65915
Heightened Def Con from 5.65927 to 5.65927
Heightened Def Con from 5.65936 to 5.65936
Heightened Def Con from 5.65958 to 5.65958
Heightened Def Con from 5.65983 to 5.65983
Heightened Def Con from 5.66006 to 5.66006
Heightened Def Con from 5.66015 to 5.66015
Heightened Def Con from 5.6604 to 5.6604
Heightened Def Con from 5.66052 to 5.66052
Heightened Def Con from 5.66067 to 5.66067
Heightened Def Con from 5.661 to 5.661
Heightened Def Con from 5.66117 to 5.66117
Heightened Def Con from 5.66152 to 5.66152
Heightened Def Con from 5.66167 to 5.66167
Heightened Def Con from 5.66188 to 5.66188
Heightened Def Con from 5.66194 to 5.66194
Heightened Def Con from 5.66213 to 5.66213
Heightened Def Con from 5.66244 to 5.66244
Heightened Def Con from 5.66261 to 5.66261
Heightened Def Con from 5.66267 to 5.66267
Heightened Def Con from 5.66269 to 5.66269
Heightened Def Con from 5.66271 to 5.66271
Heightened Def Con from 5.6628 to 5.6628
Heightened Def Con from 5.66332 to 5.66332
Heightened Def Con from 5.66373 to 5.66373
Heightened Def Con from 5.66394 to 5.66394
Heightened Def Con from 5.66409 to 5.66409
Heightened Def Con from 5.66423 to 5.66423
Heightened Def Con from 5.66432 to 5.66432
Heightened Def Con from 5.6644 to 5.6644
Heightened Def Con from 5.66451 to 5.66451
Heightened Def Con from 5.66461 to 5.66461
Heightened Def Con from 5.66467 to 5.66467
Heightened Def Con from 5.66522 to 5.66522
Heightened Def Con from 5.66592 to 5.66592
Heightened Def Con from 5.66597 to 5.66597
Heightened Def Con from 5.66661 to 5.66661
Heightened Def Con from 5.6668 to 5.6668
Heightened Def Con from 5.6669 to 5.6669
Heightened Def Con from 5.66697 to 5.66697
Heightened Def Con from 5.66699 to 5.66699
Heightened Def Con from 5.66705 to 5.66705
Heightened Def Con from 5.66713 to 5.66713
Heightened Def Con from 5.66763 to 5.66763
Heightened Def Con from 5.66801 to 5.66801
Heightened Def Con from 5.66813 to 5.66813
Heightened Def Con from 5.66824 to 5.66824
Heightened Def Con from 5.66826 to 5.66826
Heightened Def Con from 5.66843 to 5.66843
Heightened Def Con from 5.66884 to 5.66884
Heightened Def Con from 5.66899 to 5.66899
Heightened Def Con from 5.66903 to 5.66903
Heightened Def Con from 5.66926 to 5.66926
Heightened Def Con from 5.6698 to 5.6698
Heightened Def Con from 5.67085 to 5.67085
Heightened Def Con from 5.67095 to 5.67095
Heightened Def Con from 5.67124 to 5.67124
Heightened Def Con from 5.67139 to 5.67139
Heightened Def Con from 5.67145 to 5.67145
Heightened Def Con from 5.67147 to 5.67147
Heightened Def Con from 5.6716 to 5.6716
Heightened Def Con from 5.6726 to 5.6726
Heightened Def Con from 5.67262 to 5.67262
Heightened Def Con from 5.67274 to 5.67274
Heightened Def Con from 5.67308 to 5.67308
Heightened Def Con from 5.67312 to 5.67312
Heightened Def Con from 5.67351 to 5.67351
Heightened Def Con from 5.67368 to 5.67368
Heightened Def Con from 5.67524 to 5.67524
Heightened Def Con from 5.67531 to 5.67531
Heightened Def Con from 5.67541 to 5.67541
Heightened Def Con from 5.67543 to 5.67543
Heightened Def Con from 5.67547 to 5.67547
Heightened Def Con from 5.67556 to 5.67556
Heightened Def Con from 5.67558 to 5.67558
Heightened Def Con from 5.67572 to 5.67572
Heightened Def Con from 5.67577 to 5.67577
Heightened Def Con from 5.67579 to 5.67579
Heightened Def Con from 5.67622 to 5.67622
Heightened Def Con from 5.67625 to 5.67625
Heightened Def Con from 5.67627 to 5.67627
Heightened Def Con from 5.67635 to 5.67635
Heightened Def Con from 5.67654 to 5.67654
Heightened Def Con from 5.67656 to 5.67656
Heightened Def Con from 5.6766 to 5.6766
Heightened Def Con from 5.67675 to 5.67675
Heightened Def Con from 5.67716 to 5.67716
Heightened Def Con from 5.67718 to 5.67718
Heightened Def Con from 5.67768 to 5.67768
Heightened Def Con from 5.67812 to 5.67812
Heightened Def Con from 5.67837 to 5.67837
Heightened Def Con from 5.67841 to 5.67841
Heightened Def Con from 5.67848 to 5.67848
Heightened Def Con from 5.67852 to 5.67852
Heightened Def Con from 5.67856 to 5.67856
Heightened Def Con from 5.67904 to 5.67904
Heightened Def Con from 5.67975 to 5.67975
Heightened Def Con from 5.68029 to 5.68029
Heightened Def Con from 5.68044 to 5.68044

Date: Fri Nov 24 00:05:48 2017
Total elapsed time: 3248.516 seconds.

tnom = 27
temp = 27
method = modified trap
totiter = 393803098
traniter = 393803066
tranpoints = 93625993
accept = 69421438
rejected = 24240297
matrix size = 37
fillins = 8
solver = Normal
Matrix Compiler1:     101 opcodes  0.6/[0.3]/0.3
Matrix Compiler2: off  [0.2]/0.7/0.5

